data_caf2
_audit_creation_date               2025-03-27
_audit_creation_method
;
Olex2 1.5
(compiled 2025.03.04 svn.red2d20d0 for OlexSys, GUI svn.r7188)
;
_shelx_SHELXL_version_number       '2019/3'
loop_
  _audit_author_name
  _audit_author_address
 'Florian Kleemiss'
;
University of Bern
Switzerland
;

_audit_contact_author_address      ?
_audit_contact_author_email        ?
_audit_contact_author_name         ''
_audit_contact_author_phone        ?
_publ_contact_author_id_orcid      ?
_publ_section_references
;
Dolomanov, O.V., Bourhis, L.J., Gildea, R.J, Howard, J.A.K. & Puschmann, H.
 (2009), J. Appl. Cryst. 42, 339-341.

Sheldrick, G.M. (2015). Acta Cryst. C71, 3-8.
;
_chemical_name_common              ?
_chemical_name_systematic          ?
_chemical_formula_moiety           'Ca F2'
_chemical_formula_sum              'Ca F2'
_chemical_formula_weight           78.08
_chemical_melting_point            ?
_chemical_oxdiff_formula           'Ca F'
loop_
  _atom_type_symbol
  _atom_type_description
  _atom_type_scat_dispersion_real
  _atom_type_scat_dispersion_imag
  _atom_type_scat_source
 'Ca' 'Ca' 0.1378 0.1937 'International Tables Vol C Tables 4.2.6.8 and 6.1.1.4'
 'F' 'F' 0.0060 0.0061 'International Tables Vol C Tables 4.2.6.8 and 6.1.1.4'

_shelx_space_group_comment
;
The symmetry employed for this shelxl refinement is uniquely defined
by the following loop, which should always be used as a source of
symmetry information in preference to the above space-group names.
They are only intended as comments.
;
_space_group_crystal_system        'cubic'
_space_group_IT_number             225
_space_group_name_H-M_alt          'F m -3 m'
_space_group_name_Hall             '-F 4 2 3'
loop_
  _space_group_symop_operation_xyz
 'x, y, z'
 '-x, -y, z'
 '-x, y, -z'
 'x, -y, -z'
 'z, x, y'
 'z, -x, -y'
 '-z, -x, y'
 '-z, x, -y'
 'y, z, x'
 '-y, z, -x'
 'y, -z, -x'
 '-y, -z, x'
 'y, x, -z'
 '-y, -x, -z'
 'y, -x, z'
 '-y, x, z'
 'x, z, -y'
 '-x, z, y'
 '-x, -z, -y'
 'x, -z, y'
 'z, y, -x'
 'z, -y, x'
 '-z, y, x'
 '-z, -y, -x'
 'x, y+1/2, z+1/2'
 '-x, -y+1/2, z+1/2'
 '-x, y+1/2, -z+1/2'
 'x, -y+1/2, -z+1/2'
 'z, x+1/2, y+1/2'
 'z, -x+1/2, -y+1/2'
 '-z, -x+1/2, y+1/2'
 '-z, x+1/2, -y+1/2'
 'y, z+1/2, x+1/2'
 '-y, z+1/2, -x+1/2'
 'y, -z+1/2, -x+1/2'
 '-y, -z+1/2, x+1/2'
 'y, x+1/2, -z+1/2'
 '-y, -x+1/2, -z+1/2'
 'y, -x+1/2, z+1/2'
 '-y, x+1/2, z+1/2'
 'x, z+1/2, -y+1/2'
 '-x, z+1/2, y+1/2'
 '-x, -z+1/2, -y+1/2'
 'x, -z+1/2, y+1/2'
 'z, y+1/2, -x+1/2'
 'z, -y+1/2, x+1/2'
 '-z, y+1/2, x+1/2'
 '-z, -y+1/2, -x+1/2'
 'x+1/2, y, z+1/2'
 '-x+1/2, -y, z+1/2'
 '-x+1/2, y, -z+1/2'
 'x+1/2, -y, -z+1/2'
 'z+1/2, x, y+1/2'
 'z+1/2, -x, -y+1/2'
 '-z+1/2, -x, y+1/2'
 '-z+1/2, x, -y+1/2'
 'y+1/2, z, x+1/2'
 '-y+1/2, z, -x+1/2'
 'y+1/2, -z, -x+1/2'
 '-y+1/2, -z, x+1/2'
 'y+1/2, x, -z+1/2'
 '-y+1/2, -x, -z+1/2'
 'y+1/2, -x, z+1/2'
 '-y+1/2, x, z+1/2'
 'x+1/2, z, -y+1/2'
 '-x+1/2, z, y+1/2'
 '-x+1/2, -z, -y+1/2'
 'x+1/2, -z, y+1/2'
 'z+1/2, y, -x+1/2'
 'z+1/2, -y, x+1/2'
 '-z+1/2, y, x+1/2'
 '-z+1/2, -y, -x+1/2'
 'x+1/2, y+1/2, z'
 '-x+1/2, -y+1/2, z'
 '-x+1/2, y+1/2, -z'
 'x+1/2, -y+1/2, -z'
 'z+1/2, x+1/2, y'
 'z+1/2, -x+1/2, -y'
 '-z+1/2, -x+1/2, y'
 '-z+1/2, x+1/2, -y'
 'y+1/2, z+1/2, x'
 '-y+1/2, z+1/2, -x'
 'y+1/2, -z+1/2, -x'
 '-y+1/2, -z+1/2, x'
 'y+1/2, x+1/2, -z'
 '-y+1/2, -x+1/2, -z'
 'y+1/2, -x+1/2, z'
 '-y+1/2, x+1/2, z'
 'x+1/2, z+1/2, -y'
 '-x+1/2, z+1/2, y'
 '-x+1/2, -z+1/2, -y'
 'x+1/2, -z+1/2, y'
 'z+1/2, y+1/2, -x'
 'z+1/2, -y+1/2, x'
 '-z+1/2, y+1/2, x'
 '-z+1/2, -y+1/2, -x'
 '-x, -y, -z'
 'x, y, -z'
 'x, -y, z'
 '-x, y, z'
 '-z, -x, -y'
 '-z, x, y'
 'z, x, -y'
 'z, -x, y'
 '-y, -z, -x'
 'y, -z, x'
 '-y, z, x'
 'y, z, -x'
 '-y, -x, z'
 'y, x, z'
 '-y, x, -z'
 'y, -x, -z'
 '-x, -z, y'
 'x, -z, -y'
 'x, z, y'
 '-x, z, -y'
 '-z, -y, x'
 '-z, y, -x'
 'z, -y, -x'
 'z, y, x'
 '-x, -y+1/2, -z+1/2'
 'x, y+1/2, -z+1/2'
 'x, -y+1/2, z+1/2'
 '-x, y+1/2, z+1/2'
 '-z, -x+1/2, -y+1/2'
 '-z, x+1/2, y+1/2'
 'z, x+1/2, -y+1/2'
 'z, -x+1/2, y+1/2'
 '-y, -z+1/2, -x+1/2'
 'y, -z+1/2, x+1/2'
 '-y, z+1/2, x+1/2'
 'y, z+1/2, -x+1/2'
 '-y, -x+1/2, z+1/2'
 'y, x+1/2, z+1/2'
 '-y, x+1/2, -z+1/2'
 'y, -x+1/2, -z+1/2'
 '-x, -z+1/2, y+1/2'
 'x, -z+1/2, -y+1/2'
 'x, z+1/2, y+1/2'
 '-x, z+1/2, -y+1/2'
 '-z, -y+1/2, x+1/2'
 '-z, y+1/2, -x+1/2'
 'z, -y+1/2, -x+1/2'
 'z, y+1/2, x+1/2'
 '-x+1/2, -y, -z+1/2'
 'x+1/2, y, -z+1/2'
 'x+1/2, -y, z+1/2'
 '-x+1/2, y, z+1/2'
 '-z+1/2, -x, -y+1/2'
 '-z+1/2, x, y+1/2'
 'z+1/2, x, -y+1/2'
 'z+1/2, -x, y+1/2'
 '-y+1/2, -z, -x+1/2'
 'y+1/2, -z, x+1/2'
 '-y+1/2, z, x+1/2'
 'y+1/2, z, -x+1/2'
 '-y+1/2, -x, z+1/2'
 'y+1/2, x, z+1/2'
 '-y+1/2, x, -z+1/2'
 'y+1/2, -x, -z+1/2'
 '-x+1/2, -z, y+1/2'
 'x+1/2, -z, -y+1/2'
 'x+1/2, z, y+1/2'
 '-x+1/2, z, -y+1/2'
 '-z+1/2, -y, x+1/2'
 '-z+1/2, y, -x+1/2'
 'z+1/2, -y, -x+1/2'
 'z+1/2, y, x+1/2'
 '-x+1/2, -y+1/2, -z'
 'x+1/2, y+1/2, -z'
 'x+1/2, -y+1/2, z'
 '-x+1/2, y+1/2, z'
 '-z+1/2, -x+1/2, -y'
 '-z+1/2, x+1/2, y'
 'z+1/2, x+1/2, -y'
 'z+1/2, -x+1/2, y'
 '-y+1/2, -z+1/2, -x'
 'y+1/2, -z+1/2, x'
 '-y+1/2, z+1/2, x'
 'y+1/2, z+1/2, -x'
 '-y+1/2, -x+1/2, z'
 'y+1/2, x+1/2, z'
 '-y+1/2, x+1/2, -z'
 'y+1/2, -x+1/2, -z'
 '-x+1/2, -z+1/2, y'
 'x+1/2, -z+1/2, -y'
 'x+1/2, z+1/2, y'
 '-x+1/2, z+1/2, -y'
 '-z+1/2, -y+1/2, x'
 '-z+1/2, y+1/2, -x'
 'z+1/2, -y+1/2, -x'
 'z+1/2, y+1/2, x'

_cell_length_a                     5.45095(5)
_cell_length_b                     5.45095(5)
_cell_length_c                     5.45095(5)
_cell_angle_alpha                  90
_cell_angle_beta                   90
_cell_angle_gamma                  90
_cell_volume                       161.963(5)
_cell_formula_units_Z              4
_cell_measurement_reflns_used      6248
_cell_measurement_temperature      100.0(10)
_cell_measurement_theta_max        65.6870
_cell_measurement_theta_min        5.0900
_shelx_estimated_absorpt_T_max     ?
_shelx_estimated_absorpt_T_min     ?
_exptl_absorpt_coefficient_mu      1.747
_exptl_absorpt_correction_T_max    0.895
_exptl_absorpt_correction_T_min    0.776
_exptl_absorpt_correction_type     analytical
_exptl_absorpt_process_details
;
CrysAlisPro 1.171.40.53 (Rigaku Oxford Diffraction, 2019)
Analytical numeric absorption correction using a multifaceted crystal
			model based on expressions derived by R.C. Clark & J.S. Reid.
(Clark, R. C. & Reid, J. S. (1995). Acta Cryst. A51, 887-897)
Empirical absorption correction using spherical harmonics,
 implemented in SCALE3 ABSPACK scaling algorithm.
;
_exptl_absorpt_special_details     ?
_exptl_crystal_colour              ?
_exptl_crystal_density_diffrn      3.202
_exptl_crystal_density_meas        ?
_exptl_crystal_density_method      ?
_exptl_crystal_description         block
_exptl_crystal_F_000               152
loop_
  _exptl_crystal_face_index_h
  _exptl_crystal_face_index_k
  _exptl_crystal_face_index_l
  _exptl_crystal_face_perp_dist
 2 -1 1 0.1314
 0 -1 0 0.1160
 -1 -2 2 0.0676
 1 0 1 0.1219
 1 0 2 0.1147
 0 2 1 0.1446
 1 2 -1 0.0891
 1 2 2 0.1164
 0 0 -1 0.1362
 2 1 2 0.1044
 -2 1 -2 0.0900
 -1 -2 -2 0.1498
 1 1 -1 0.0643
 -1 1 -1 0.0693
 1 2 -2 0.0676
 0 0 1 0.0947
 -2 -1 2 0.0573
 1 -2 -1 0.1285
 1 -2 0 0.1096
 1 -2 1 0.1020
 -2 1 -1 0.0731
 -1 -2 1 0.0617
 1 1 1 0.0946
 -2 -1 1 0.0470
 -1 2 -2 0.0640
 -1 -1 1 0.0403
 2 1 -1 0.0576
 1 1 2 0.0989

_exptl_crystal_size_max            0.304
_exptl_crystal_size_mid            0.205
_exptl_crystal_size_min            0.105
loop_
  _exptl_oxdiff_crystal_face_indexfrac_h
  _exptl_oxdiff_crystal_face_indexfrac_k
  _exptl_oxdiff_crystal_face_indexfrac_l
  _exptl_oxdiff_crystal_face_x
  _exptl_oxdiff_crystal_face_y
  _exptl_oxdiff_crystal_face_z
 1.9980 -0.9956 1.0082 0.2453 0.0521 -0.0151
 0.0005 -0.9990 0.0055 0.0382 0.0457 0.0833
 -1.0010 -1.9945 2.0089 0.0276 0.2969 0.0768
 0.9981 0.0027 1.0013 0.1145 0.0449 -0.0771
 0.9969 0.0048 2.0010 0.1364 0.1283 -0.1327
 -0.0022 2.0001 0.9889 -0.0546 -0.0080 -0.2224
 0.9998 1.9966 -1.0092 -0.0057 -0.2134 -0.1324
 0.9960 2.0028 1.9901 0.0599 0.0369 -0.2994
 0.0013 -0.0021 -0.9998 -0.0219 -0.0834 0.0557
 1.9958 1.0044 1.9971 0.1908 0.0440 -0.2375
 -1.9967 0.9935 -2.0080 -0.2672 -0.1355 0.0708
 -0.9960 -2.0028 -1.9901 -0.0599 -0.0369 0.2994
 1.0002 0.9976 -1.0037 0.0325 -0.1677 -0.0491
 -0.9986 0.9963 -1.0067 -0.1527 -0.0906 -0.0063
 1.0010 1.9945 -2.0089 -0.0276 -0.2969 -0.0768
 -0.0013 0.0021 0.9998 0.0219 0.0834 -0.0557
 -2.0009 -0.9962 2.0020 -0.1032 0.2897 0.0148
 1.0016 -1.9994 -0.9874 0.1472 -0.0305 0.2010
 1.0003 -1.9973 0.0124 0.1691 0.0529 0.1453
 0.9990 -1.9953 1.0122 0.1910 0.1363 0.0896
 -1.9980 0.9956 -1.0082 -0.2453 -0.0521 0.0151
 -0.9998 -1.9966 1.0092 0.0057 0.2134 0.1324
 0.9977 1.0017 0.9958 0.0763 -0.0008 -0.1604
 -1.9996 -0.9982 1.0022 -0.1251 0.2063 0.0705
 -0.9978 1.9932 -2.0119 -0.2128 -0.2198 -0.0340
 -1.0002 -0.9976 1.0037 -0.0325 0.1677 0.0491
 1.9996 0.9982 -1.0022 0.1251 -0.2063 -0.0705
 0.9964 1.0038 1.9956 0.0981 0.0826 -0.2161

_exptl_transmission_factor_max     ?
_exptl_transmission_factor_min     ?
_diffrn_reflns_av_R_equivalents    0.0677
_diffrn_reflns_av_unetI/netI       0.0117
_diffrn_reflns_Laue_measured_fraction_full  1.000
_diffrn_reflns_Laue_measured_fraction_max  1.000
_diffrn_reflns_limit_h_max         13
_diffrn_reflns_limit_h_min         -13
_diffrn_reflns_limit_k_max         13
_diffrn_reflns_limit_k_min         -13
_diffrn_reflns_limit_l_max         13
_diffrn_reflns_limit_l_min         -13
_diffrn_reflns_number              5299
_diffrn_reflns_point_group_measured_fraction_full  1.000
_diffrn_reflns_point_group_measured_fraction_max  1.000
_diffrn_reflns_theta_full          19.665
_diffrn_reflns_theta_max           44.256
_diffrn_reflns_theta_min           5.112
_diffrn_ambient_temperature        293(2)
_diffrn_detector_area_resol_mean   10.0000
_diffrn_detector_type              HyPix
_diffrn_measured_fraction_theta_full  1.000
_diffrn_measured_fraction_theta_max  1.000
_diffrn_measurement_details
;
List of Runs (angles in degrees, time in seconds):

  # Type    Start    End  Width  t~exp~   \w     \q     \k     \f   Frames
#--------------------------------------------------------------------------
  1  \w    -18.00  73.00   1.00    5.00    --    0.00  65.00-147.00   91
  2  \w     74.00 149.00   1.00   20.00    --   86.25  47.00 -55.00   75
  3  \w     82.00 149.00   1.00   20.00    --   86.25 110.00  24.00   67
  4  \w     74.00 149.00   1.00   20.00    --   86.25  19.00 150.00   75
  5  \w     74.00 149.00   1.00   20.00    --   86.25  19.00  30.00   75
  6  \w     72.00 149.00   1.00   20.00    --   86.25  57.00-120.00   77
  7  \w     74.00 149.00   1.00   20.00    --   86.25  37.00-150.00   75
  8  \w     72.00 149.00   1.00   20.00    --   86.25  57.00 -30.00   77
  9  \w     72.00 149.00   1.00   20.00    --   86.25  57.00  60.00   77
 10  \w     72.00 149.00   1.00   20.00    --   86.25  57.00 150.00   77
 11  \w     14.00  53.00   1.00   20.00    --   86.25 -65.00  76.00   39
 12  \w     14.00  81.00   1.00   20.00    --   86.25 -99.00   0.00   67
 13  \w     14.00  81.00   1.00   20.00    --   86.25 -77.00  12.00   67
 14  \w     14.00  41.00   1.00   20.00    --   86.25 -57.00 150.00   27
 15  \w     14.00 115.00   1.00   20.00    --   86.25 -88.00 136.03  101
 16  \w     14.00  41.00   1.00   20.00    --   86.25 -57.00 -90.00   27
 17  \w     14.00  41.00   1.00   20.00    --   86.25 -57.00-150.00   27
 18  \w     14.00  41.00   1.00   20.00    --   86.25 -57.00-180.00   27
 19  \w     14.00 114.00   1.00   20.00    --   86.25 -87.00-107.96  100
 20  \w    -12.00  76.00   1.00    5.00    --    0.00  19.00 150.00   88
 21  \w    -12.00  60.00   1.00    5.00    --    0.00  19.00  90.00   72
 22  \w    -22.00  34.00   1.00    5.00    --    0.00 -99.00  60.00   56
 23  \w    -22.00  34.00   1.00    5.00    --    0.00 -99.00 120.00   56
 24  \w    -42.00 -12.00   1.00   20.00    --  -40.25 -88.00 160.39   30
 25  \w    -41.00 -10.00   1.00   20.00    --  -40.25 -92.00  78.08   31
 26  \w    -75.00 -50.00   1.00   40.00    --  -40.25 110.00  24.00   25
 27  \w     91.00 116.00   1.00   40.00    --   86.25 110.00  24.00   25
;
_diffrn_measurement_device         'four-circle diffractometer'
_diffrn_measurement_device_type    'XtaLAB Synergy, Dualflex, HyPix'
_diffrn_measurement_method         '\w scans'
_diffrn_radiation_type             AgK\a
_diffrn_radiation_wavelength       0.56087
_diffrn_source                     ?
_reflns_Friedel_coverage           0.000
_reflns_Friedel_fraction_full      .
_reflns_Friedel_fraction_max       .
_reflns_number_gt                  96
_reflns_number_total               96
_reflns_special_details
;
 Reflections were merged by SHELXL according to the crystal
 class for the calculation of statistics and refinement.
 
 _reflns_Friedel_fraction is defined as the number of unique
 Friedel pairs measured divided by the number that would be
 possible theoretically, ignoring centric projections and
 systematic absences.
;
_reflns_threshold_expression       'I > 2\s(I)'
_computing_cell_refinement         'CrysAlisPro 1.171.40.53 (Rigaku OD, 2019)'
_computing_data_collection         'CrysAlisPro 1.171.40.53 (Rigaku OD, 2019)'
_computing_data_reduction          'CrysAlisPro 1.171.40.53 (Rigaku OD, 2019)'
_computing_molecular_graphics      'Olex2 1.5 (Dolomanov et al., 2009)'
_computing_publication_material    'Olex2 1.5 (Dolomanov et al., 2009)'
_computing_structure_refinement    'SHELXL 2019/3 (Sheldrick, 2015)'
_computing_structure_solution      ?
_refine_diff_density_max           0.551
_refine_diff_density_min           -0.385
_refine_diff_density_rms           0.106
_refine_ls_extinction_coef         .
_refine_ls_extinction_method       none
_refine_ls_goodness_of_fit_ref     1.440
_refine_ls_hydrogen_treatment      undef
_refine_ls_matrix_type             full
_refine_ls_number_parameters       3
_refine_ls_number_reflns           96
_refine_ls_number_restraints       0
_refine_ls_R_factor_all            0.0128
_refine_ls_R_factor_gt             0.0128
_refine_ls_restrained_S_all        1.440
_refine_ls_shift/su_max            0.000
_refine_ls_shift/su_mean           0.000
_refine_ls_structure_factor_coef   Fsqd
_refine_ls_weighting_details      
 'w=1/[\s^2^(Fo^2^)+(0.0109P)^2^+0.1029P] where P=(Fo^2^+2Fc^2^)/3'
_refine_ls_weighting_scheme        calc
_refine_ls_wR_factor_gt            0.0335
_refine_ls_wR_factor_ref           0.0335
_refine_special_details
;
Refinement using NoSpherA2, an implementation of
 NOn-SPHERical Atom-form-factors in Olex2.
Please cite:
F. Kleemiss, H. Puschmann, O. Dolomanov, S.Grabowsky - to be published - 2020
NoSpherA2 implementation of HAR makes use of
 tailor-made aspherical atomic form factors calculated
on-the-fly from a Hirshfeld-partitioned electron density (ED) - not from
spherical-atom form factors.

The ED is calculated from a gaussian basis set single determinant SCF
wavefunction - either Hartree-Fock or DFT using selected funtionals
 - for a fragment of the crystal.
This fregment can be embedded in an electrostatic crystal field by employing cluster charges.
The following options were used:
   SOFTWARE:       ORCA
   PARTITIONING:   NoSpherA2
   INT ACCURACY:   High
   METHOD:         PBE
   BASIS SET:      def2-TZVPP
   CHARGE:         18
   MULTIPLICITY:   1
   DATE:           2020-06-17_15-21-20
;
_olex2_refinement_description
;
;
_atom_sites_solution_hydrogens     .
_atom_sites_solution_primary       ?
_atom_sites_solution_secondary     ?
loop_
  _atom_site_label
  _atom_site_type_symbol
  _atom_site_fract_x
  _atom_site_fract_y
  _atom_site_fract_z
  _atom_site_U_iso_or_equiv
  _atom_site_adp_type
  _atom_site_occupancy
  _atom_site_site_symmetry_order
  _atom_site_calc_flag
  _atom_site_refinement_flags_posn
  _atom_site_refinement_flags_adp
  _atom_site_refinement_flags_occupancy
  _atom_site_disorder_assembly
  _atom_site_disorder_group
 Ca01 Ca 0.500000 0.500000 0.500000 0.00331(5) Uani 1 48 d S T P . .
 F002 F 0.250000 0.750000 0.750000 0.00491(8) Uani 1 24 d S T P . .

loop_
  _atom_site_aniso_label
  _atom_site_aniso_U_11
  _atom_site_aniso_U_22
  _atom_site_aniso_U_33
  _atom_site_aniso_U_23
  _atom_site_aniso_U_13
  _atom_site_aniso_U_12
 Ca01 0.00331(5) 0.00331(5) 0.00331(5) 0.000 0.000 0.000
 F002 0.00491(8) 0.00491(8) 0.00491(8) 0.000 0.000 0.000

_geom_special_details
;
 All esds (except the esd in the dihedral angle between two l.s. planes)
 are estimated using the full covariance matrix.  The cell esds are taken
 into account individually in the estimation of esds in distances, angles
 and torsion angles; correlations between esds in cell parameters are only
 used when they are defined by crystal symmetry.  An approximate (isotropic)
 treatment of cell esds is used for estimating esds involving l.s. planes.
;
loop_
  _geom_bond_atom_site_label_1
  _geom_bond_atom_site_label_2
  _geom_bond_distance
  _geom_bond_site_symmetry_2
  _geom_bond_publ_flag
 Ca01 Ca01 3.85441(4) 25 ?
 Ca01 Ca01 3.85441(4) 49_454 ?
 Ca01 Ca01 3.85441(4) 49 ?
 Ca01 Ca01 3.85441(4) 73_445 ?
 Ca01 F002 2.36033(2) 25_544 ?
 Ca01 F002 2.36033(3) 73_545 ?
 Ca01 F002 2.36033(3) 49_554 ?
 Ca01 F002 2.36033(3) 121_666 ?
 Ca01 F002 2.36033(3) 169_566 ?
 Ca01 F002 2.36033(3) . ?
 Ca01 F002 2.36033(3) 145_566 ?
 Ca01 F002 2.36033(3) 97_666 ?

loop_
  _geom_angle_atom_site_label_1
  _geom_angle_atom_site_label_2
  _geom_angle_atom_site_label_3
  _geom_angle
  _geom_angle_site_symmetry_1
  _geom_angle_site_symmetry_3
  _geom_angle_publ_flag
 Ca01 Ca01 Ca01 60.0 25 49 ?
 Ca01 Ca01 Ca01 120.0 49 73_445 ?
 Ca01 Ca01 Ca01 120.0 25 73_445 ?
 Ca01 Ca01 Ca01 120.0 25 49_454 ?
 Ca01 Ca01 Ca01 60.0 73_445 49_454 ?
 Ca01 Ca01 Ca01 180.0 49 49_454 ?
 F002 Ca01 Ca01 90.0 73_545 25 ?
 F002 Ca01 Ca01 90.0 73_545 73_445 ?
 F002 Ca01 Ca01 90.0 . 49_454 ?
 F002 Ca01 Ca01 35.3 121_666 49 ?
 F002 Ca01 Ca01 144.7 121_666 49_454 ?
 F002 Ca01 Ca01 144.7 25_544 49 ?
 F002 Ca01 Ca01 144.7 97_666 25 ?
 F002 Ca01 Ca01 144.7 169_566 49 ?
 F002 Ca01 Ca01 90.0 145_566 25 ?
 F002 Ca01 Ca01 90.0 145_566 49 ?
 F002 Ca01 Ca01 35.3 169_566 49_454 ?
 F002 Ca01 Ca01 90.0 . 49 ?
 F002 Ca01 Ca01 144.7 73_545 49_454 ?
 F002 Ca01 Ca01 90.0 97_666 49 ?
 F002 Ca01 Ca01 90.0 97_666 73_445 ?
 F002 Ca01 Ca01 35.3 73_545 49 ?
 F002 Ca01 Ca01 144.7 49_554 73_445 ?
 F002 Ca01 Ca01 90.0 49_554 49 ?
 F002 Ca01 Ca01 35.3 . 25 ?
 F002 Ca01 Ca01 35.3 121_666 25 ?
 F002 Ca01 Ca01 35.3 25_544 49_454 ?
 F002 Ca01 Ca01 144.7 121_666 73_445 ?
 F002 Ca01 Ca01 90.0 145_566 49_454 ?
 F002 Ca01 Ca01 144.7 25_544 25 ?
 F002 Ca01 Ca01 90.0 97_666 49_454 ?
 F002 Ca01 Ca01 90.0 169_566 25 ?
 F002 Ca01 Ca01 90.0 49_554 49_454 ?
 F002 Ca01 Ca01 35.3 145_566 73_445 ?
 F002 Ca01 Ca01 90.0 . 73_445 ?
 F002 Ca01 Ca01 35.3 25_544 73_445 ?
 F002 Ca01 Ca01 90.0 169_566 73_445 ?
 F002 Ca01 Ca01 90.0 49_554 25 ?
 F002 Ca01 F002 70.5 145_566 . ?
 F002 Ca01 F002 70.5 169_566 . ?
 F002 Ca01 F002 109.471(1) 169_566 145_566 ?
 F002 Ca01 F002 109.5 121_666 97_666 ?
 F002 Ca01 F002 109.5 121_666 169_566 ?
 F002 Ca01 F002 70.529(1) 25_544 97_666 ?
 F002 Ca01 F002 70.5 169_566 49_554 ?
 F002 Ca01 F002 109.471(1) 169_566 97_666 ?
 F002 Ca01 F002 109.5 73_545 49_554 ?
 F002 Ca01 F002 109.5 145_566 97_666 ?
 F002 Ca01 F002 109.471(1) 121_666 145_566 ?
 F002 Ca01 F002 180.0 . 97_666 ?
 F002 Ca01 F002 109.5 25_544 . ?
 F002 Ca01 F002 70.529(1) 121_666 73_545 ?
 F002 Ca01 F002 180.0 145_566 49_554 ?
 F002 Ca01 F002 109.5 25_544 73_545 ?
 F002 Ca01 F002 70.5 97_666 49_554 ?
 F002 Ca01 F002 180.0 169_566 73_545 ?
 F002 Ca01 F002 180.0 121_666 25_544 ?
 F002 Ca01 F002 70.5 145_566 73_545 ?
 F002 Ca01 F002 70.5 25_544 169_566 ?
 F002 Ca01 F002 109.5 . 73_545 ?
 F002 Ca01 F002 70.529(1) 25_544 145_566 ?
 F002 Ca01 F002 70.5 97_666 73_545 ?
 F002 Ca01 F002 70.5 121_666 . ?
 F002 Ca01 F002 70.5 121_666 49_554 ?
 F002 Ca01 F002 109.5 25_544 49_554 ?
 F002 Ca01 F002 109.5 . 49_554 ?
 Ca01 F002 Ca01 109.5 25 73_455 ?
 Ca01 F002 Ca01 109.5 73_455 49_455 ?
 Ca01 F002 Ca01 109.5 25 49_455 ?
 Ca01 F002 Ca01 109.5 25 . ?
 Ca01 F002 Ca01 109.5 . 49_455 ?
 Ca01 F002 Ca01 109.5 73_455 . ?

_shelx_res_file
;
TITL caf_ag3_a.res in Fm-3m
    caf2.res
    created by SHELXL-2019/3 at 14:50:04 on 27-Mar-2025
REM Old TITL CaF_Ag3 in Fm-3m
REM SHELXT solution in Fm-3m
REM R1 0.012, Rweak 0.001, Alpha 0.002, Orientation as input
REM Formula found by SHELXT: F2 Ca
CELL 0.56087 5.450952 5.450952 5.450952 90 90 90
ZERR 4 0.000052 0.000052 0.000052 0 0 0
LATT 4
SYMM -X,-Y,+Z
SYMM -X,+Y,-Z
SYMM +X,-Y,-Z
SYMM +Z,+X,+Y
SYMM +Z,-X,-Y
SYMM -Z,-X,+Y
SYMM -Z,+X,-Y
SYMM +Y,+Z,+X
SYMM -Y,+Z,-X
SYMM +Y,-Z,-X
SYMM -Y,-Z,+X
SYMM +Y,+X,-Z
SYMM -Y,-X,-Z
SYMM +Y,-X,+Z
SYMM -Y,+X,+Z
SYMM +X,+Z,-Y
SYMM -X,+Z,+Y
SYMM -X,-Z,-Y
SYMM +X,-Z,+Y
SYMM +Z,+Y,-X
SYMM +Z,-Y,+X
SYMM -Z,+Y,+X
SYMM -Z,-Y,-X
SFAC Ca F
DISP Ca 0.1378 0.1937 651.9347
DISP F 0.006 0.0061 27.6988
UNIT 4 8

L.S. 10
PLAN  5
CONF
MORE -1
LIST -6
fmap 2
acta
REM <olex2.extras>
REM <HklSrc "%.\\CaF2.hkl">
REM </olex2.extras>

WGHT    0.010900    0.102900
FVAR       3.07399
CA01  1    0.500000    0.500000    0.500000    10.02083    0.00331    0.00331 =
         0.00331    0.00000    0.00000    0.00000
F002  2    0.250000    0.750000    0.750000    10.04167    0.00491    0.00491 =
         0.00491    0.00000    0.00000    0.00000
HKLF 4




REM  caf_ag3_a.res in Fm-3m
REM wR2 = 0.0335, GooF = S = 1.440, Restrained GooF = 1.440 for all data
REM R1 = 0.0128 for 96 Fo > 4sig(Fo) and 0.0128 for all 96 data
REM 3 parameters refined using 0 restraints

END

WGHT      0.0109      0.1030

REM Highest difference peak  0.551,  deepest hole -0.385,  1-sigma level  0.106
Q1    1   0.5000  0.5000  0.5888  10.12500  0.05    0.55
Q2    1   0.2500  0.7500  0.6631  10.25000  0.05    0.29
Q3    1   0.3823  0.6177  0.6177  10.16667  0.05    0.25
Q4    1   0.3374  0.8374  0.7259  10.50000  0.05    0.19
Q5    1   0.2708  0.5000  0.5000  10.12500  0.05    0.18
;
_shelx_res_checksum                26212
_shelx_hkl_file
;
   1   1  -138976.97  222.72  22
  -1  -1   138778.02  127.85  26
   1  -1  -142504.75  310.45   1
   1  -1   140122.70  322.38  20
  -1   1  -137751.60  227.43  22
   1   1   138645.98  288.58   1
   1  -1  -142582.31  313.38  21
   0   0  -2   45.06    7.99  23
   0   0   2   58.64    8.76  23
   0   0  -2   63.35   11.65   1
   0   2   0   49.71   11.12   1
   2   0   0   44.25    8.91  20
   2   0   0   60.39   10.96  21
  -2   0   0   58.39   12.45  22
   2   0   0   45.72   10.72  23
   0   2   0   54.06    9.22  20
  -2   2   088328.56  531.35  22
   2   2   088963.59  563.28  22
   2   0  -294889.41  676.26  21
   0  -2  -286406.28  514.89  21
   2   0   277039.73  561.95  20
   2   2   081465.14  460.72   1
  -2   0   294967.56  487.62   1
   2   0  -290381.10  476.84   1
   0   2   292049.66  616.25   1
   2  -2   083513.54  583.39  20
   0   2   299999.00  562.68  21
   2   0   291857.22  330.65  24
  -2   0  -288211.32  570.88  20
  -2   0  -284372.98  559.85  23
   0   2  -289470.44  623.89  20
   2  -2   2  587.43   54.31  20
  -2  -2   2  563.31   15.32  26
   2  -2   2  557.65   18.81  25
  -2  -2  -2  467.62   30.48  20
  -2  -2   2  546.78   33.62  22
  -2  -2  -2  570.44   15.63  26
   2   2  -2  588.41   11.72  25
   2  -2  -2  599.98   51.63   1
   2  -2   2  551.07   34.33  22
   2   2  -2  521.40   45.52  20
  -2   2   2  667.76   52.91  21
   2   2   2  550.67   48.09   1
   1  -3   123318.65  279.13   1
  -1   1   322513.00  284.54   1
   1  -3  -122555.66  302.39  21
  -1  -3   115011.85  244.16  20
   3  -1  -122759.61  312.75  21
  -1  -1   321465.92  207.13   1
  -3  -1  -117423.63  167.42  21
   1   3  -121130.22  197.03  22
   1  -3  -121205.86  263.37  20
  -3   1  -123060.02  305.36  21
   3   1  -119148.94  119.60  25
  -1   1   321091.77  122.62  24
  -3   1   121985.43  288.43  22
   3  -1  -119844.79  135.32  25
  -1   3   122158.71  315.41   1
  -1  -3  -123062.09  186.88  20
   3   1   120571.30  211.05  20
  -1   3   121758.33  289.67  21
  -1  -3  -120071.42  271.02   1
   3   1  -122018.44  269.47  21
   1   1  -320373.04  322.45  20
  -1   1  -320617.46  242.93  23
  -1  -1  -319476.50  280.12  20
   3   1   121099.40  276.23  23
   1   3   121269.10  280.47   1
   3   1  -121045.23  269.36  22
   1   3   122344.55  221.81  21
  -3   1  -119962.94  264.74  22
   1   1   322016.81  266.27  23
   3  -1   122983.73  304.71  20
  -3   1   118695.89  218.48  23
   1  -1  -321324.97  280.95   1
  -1   3  -121767.54  184.48  22
  -1  -3   120417.98  209.56   1
   1   3  -120239.31  240.66  20
   3   1  -120405.84  221.75  23
   1   1  -319633.94  156.83  23
  -1   3  -121615.48  297.15  20
   3  -1  -121589.17  275.48   1
   1  -1   319965.99  321.33  20
  -1   3  -313936.08  292.01  20
  -3   1   311825.93  128.48  23
   3   3   112826.09  228.15   1
  -3   1   316508.50  244.78   1
   3   1   312865.94  261.19   1
   3  -1  -315261.72  296.61  21
  -1  -3  -314183.20  203.89  21
   3   1   311836.74  227.95  20
  -3  -1   315727.12  245.03  22
   3   3  -113779.44  223.79  22
  -3   3   114869.81  253.58  22
   3   3  -114191.22  158.77   1
  -3   1  -313701.94  253.43  23
   3   1  -316931.26  316.72  21
   3   3  -110614.24  175.41  20
   3  -3  -115224.90  284.19   1
   3   3   115448.80  278.36  22
  -3  -1  -312702.78  255.21  23
   1   3  -313437.26  268.96  20
   1  -3  -314136.60  283.65   1
  -3  -3   113705.01   99.31  26
   3  -3  -113430.19  286.30  21
   1  -3  -313724.17  258.38  21
  -1   3   315469.61  279.73  21
   3   1   314541.63  135.47  24
   3   1  -311034.58  150.29   1
   3  -3   114235.19  287.66  20
   1   3   313887.24  272.76   1
   3  -1   313535.49  282.25  20
   3  -1  -313666.56  239.23   1
  -3   3  -112936.90  211.82  22
  -3  -1  -313739.83  242.09  20
   3   3  -3 8828.65  236.03  20
  -3   3   311342.09  274.16  21
   3  -3   310039.22  104.21  25
  -3   3   311009.00  252.69   1
   3  -3   310680.88  180.84  22
   3  -3  -310241.27  250.98   1
  -3   3   3 9118.64   66.69  24
   3   3   310485.96  254.31   1
  -3  -3   3 9697.45  170.54  22
   3  -3   310778.34  290.26  20
  -3  -3  -3 9071.12  152.78  20
  -3   3  -3 9565.17  237.06  23
   4   0   046245.69  423.23  23
   0  -4   051927.85  471.12  20
   0   0   451553.93  353.53  23
   0   4   050930.74  482.27  21
   0   0  -449571.85  372.17  23
  -4   0   044975.61  439.50  23
  -4   0   045784.14  420.27  21
   0   4   045387.72  457.32   1
   4   0   048938.00  454.20  21
   0  -4   051176.76  480.04   1
  -4   0   047169.97  467.61  22
   0   0   450394.88  458.18   1
   4   0   046531.38  247.28  25
   4   0   051763.83  436.80  20
   0  -4   2  841.28   69.45  20
   0  -4   2  946.62   58.80   1
   4  -2   0  940.67   68.56  20
   0  -2  -4  993.03   70.50   1
  -4   2   0  827.20   67.31  21
   2   4   0  923.15   56.56   1
   4   0   2  836.03   61.24  20
   2   0  -4 1142.53   84.36  21
   0   2   4  980.62   60.58  23
   4   0  -2  987.67   30.64  25
  -4   2   0  985.88   66.14  22
   2  -4   0 1008.29   72.94  20
   4   0  -2  911.82   55.55   1
   0   4   2 1048.76   74.44   1
  -2   0   4  954.98   58.50   1
  -4   0  -2  890.90   56.88  21
   0  -2   4  927.49   55.62   1
   2   0   4  905.97   33.53  24
   4   2   0  964.10   49.27  21
  -4   2   0  786.71   59.21  23
  -2   4   0  999.95   76.71  21
   0   4  -2  898.12   65.49  20
   4   0   2  919.24   65.84  23
  -2   0  -4  858.18   61.74  23
   4   0   2  864.56   28.73  24
   4   2   0  986.72   41.61  20
  -4   0   2  807.33   43.51  23
   4   2   0  923.64   67.55  22
   2   0  -4  926.16   56.59   1
   4   0  -2 1024.55   73.55  21
   0   2  -4  872.16   51.67  23
   0   2  -4  935.19   76.92  20
   4  -2   0  837.63   71.72  21
   4   2   0  889.32   63.53  23
  -2  -4   0  828.38   52.90   1
   4   2   0  742.30   51.12   1
  -4   0  -2  881.93   61.36  20
   0   4   2  888.90   58.05  21
   0  -2  -4  963.60   64.32  21
   0  -4  -2  841.79   63.21  21
   4   2   235657.32  460.71  22
   2  -2   436832.36  338.47  22
  -2  -4  -231702.63  215.49  20
  -2  -4   220111.38  196.33   1
   4   2  -236721.63  448.01  21
   4  -2  -234940.57  429.79   1
   2   2   433522.47  436.58  23
   4  -2  -234269.71  471.05  21
  -2   2   438474.27  444.53   1
  -4   2  -231240.49  434.42  21
   4   2   227936.00  404.32   1
  -2  -2   436416.70  330.46  22
   4  -2   230904.77  208.31  25
   2   2  -432235.23  470.44  20
   2   4  -229067.93  345.97  20
  -2  -2   437329.13  244.19   1
   2  -4  -234793.43  470.95   1
   2  -4  -232156.48  440.45  21
   4  -2   232469.41  453.81  20
  -4   2  -230406.51  425.27  20
  -4   2  -231824.31  386.18  22
  -4   2  -230403.25  412.25  23
  -4   2   226189.84  301.58  23
  -2   4  -232889.22  458.63  20
  -2   2  -433342.77  403.47  23
  -4   2   236773.44  447.00  22
   2  -2  -435696.40  435.52   1
   2  -2  -438062.76  466.64  21
   2   4   234193.63  435.07   1
   4  -2   235080.31  395.97  22
  -2  -2  -433600.04  333.61  21
   4   2  -233410.57  386.91  22
   4   2  -232928.00  173.05  25
  -2  -4  -231832.30  406.20   1
   2   4  -228406.31  263.39  22
   4   2   220036.45  242.62  20
   2   2   434078.17  460.47   1
  -2   4  -226565.71  264.89  22
   2   4   226891.13  241.90  21
   4   2  -229905.88  216.59   1
  -2   2   430856.81  169.64  24
  -2   4   232993.72  422.99  21
  -4  -2   231160.26  364.98  22
   2  -2   433213.99  509.49  20
   4   2  -232545.79  331.46  23
   4   2   234675.60  450.32  23
  -2   4   235032.65  450.07   1
   4   4   026789.88  382.13  22
   4   0  -422115.73  288.65   1
   4   0   427875.31  408.32  22
   4   0   424551.69  196.02  24
  -4   0  -422813.35  383.72  23
   0  -4   424370.03  448.53  20
  -4   0  -425487.81  394.35  20
   4  -4   026136.02  416.74  20
  -4   0   427189.79  391.76  22
   4   4   025048.20  311.53   1
   0  -4  -425128.87  418.66   1
   0   4  -424303.95  415.09  20
   0  -4  -423960.91  335.21  21
  -4  -4   024822.81  161.18  26
   0   4   425661.30  428.57   1
   4  -4   024381.55  418.63   1
   4   0  -428900.63  456.59  21
   4   0   422042.87  388.38  20
  -4   4   024732.99  337.99  22
   4   4   021872.78  260.61  21
  -4   4  -2  928.58   81.04  23
   4   4  -2 1241.13   72.18  22
   2   4   4 1190.06   95.15  23
  -4  -2   4 1176.81   72.90  22
   4  -2   4 1065.36   93.64  20
  -4  -2   4 1162.13   27.68  26
  -4   4  -2 1198.14   69.46  22
  -4  -2  -4 1107.13   45.36  21
   2  -4  -4 1181.90   94.85   1
   4   4   2 1314.79   92.38  22
  -2  -4  -4  855.50   66.56  20
   4   2   4 1103.35   90.63   1
   4   2  -4  636.35   24.06  23
  -2  -4  -4 1066.68   54.84  21
  -4   4  -2 1062.40   85.26  20
   4  -2  -4 1280.83   99.79  21
   4  -4   2 1159.44   97.82  20
  -4   4   2 1100.47   89.40  21
  -4   4   2 1343.57   88.11  22
  -4   2  -4 1173.10   86.03  23
   2  -4  -4 1168.73   88.86  21
  -4  -2  -4 1226.98   28.16  26
  -4   2  -4 1291.48   96.53  20
   4   2  -4 1394.85  103.22  21
  -2   4   4 1241.59   92.20  21
  -2   4  -4 1233.51   99.02  20
   2   4   4 1301.23   96.87   1
   4  -2   4 1235.25   76.10  22
   2   4  -4 1241.10   92.63  20
   4   4   2 1145.89   94.09  23
   4   2   4 1317.83   49.10  24
   4   4  -2  869.31   57.87  20
  -4   2   4  893.44   43.49  23
   4   4   2 1111.08   81.99   1
   4  -2   4 1231.94   41.21  25
   4  -2  -4 1094.71   80.63   1
   4  -4  -2 1098.37   90.38   1
   4   4   416072.32  355.61   1
  -4   4  -415160.68  339.38  23
  -4   4  -415580.72  155.24   6
  -4   4   415707.49  369.07  21
   4  -4  -415536.28  168.43   5
   4   4  -414745.47  338.13  20
  -4  -4   412736.24  214.55  22
   4  -4  -413506.21  330.14   1
   4  -4   414702.33  382.28  20
   4  -4   415325.11  150.80  25
   4  -4  -413858.99  350.87  21
   4  -4   414295.02  231.07  22
  -4  -4   414967.80  149.78  19
  -4  -4   414945.66  164.71  16
  -4  -4  -414848.14  167.95  15
  -1  -5   1 9728.89  199.41   1
   1   5   111297.30  243.87   1
   1  -1  -511195.40  238.13   1
   5   1   111206.02  259.16  22
   1  -5  -110796.88  231.87  20
  -5  -1   1 9566.33  226.94  22
  -1   1   510447.18  151.51  23
   1   5  -1 9398.26  184.45  20
  -5  -1  -1 9293.10  225.91  23
   5  -1  -1 9906.44  120.81  25
   5   1  -110290.36  229.54  21
   1   5   1 9709.80  194.45  21
  -5   1   1 9752.81  197.95  23
   5   1  -111112.56  207.81  23
   1  -5  -110354.19  258.85   1
   5  -1   1 6816.79   69.40  24
  -1   5  -1 9562.07  215.32  20
  -1   1  -510600.50  206.76  23
  -5   1   1 9458.68  233.00  21
  -5  -1  -1 9168.88  171.43  21
  -1  -1   511248.92  205.77   1
  -1   5   1 9365.28  226.57  21
  -1  -5   1 8286.37  198.09  20
  -1   1   510530.93  238.15   1
   5  -1  -1 9844.89  251.89  21
  -1  -5  -1 9396.90  225.13   1
   1  -5   110478.29  256.08  20
   5   1  -111036.68  247.72  22
   1  -1  -512293.55  282.60  21
  -1  -5  -110010.74  185.39  20
   1   1  -510637.93  144.05  23
  -5   1  -1 8910.98  216.01  21
   1  -5   110637.01  246.54   1
   1   1   510725.68  253.22   1
   1  -1   510268.27  231.86   1
   5   1   111024.51  237.13  23
   5  -1  -111265.29  240.47  20
   5  -1   110619.81  239.36  20
  -5   1  -1 9824.87  227.48  23
  -5   1   110554.88  240.41  22
  -5   1  -110048.96  233.31  22
   1   1  -510638.67  285.93  20
  -1  -1  -510419.76  263.58  20
   5   1  -1 9771.11  111.72  25
   5   1   1 9472.57  183.84  20
   5  -1   1 9926.92  121.35  25
  -1   5   111666.98  247.12   1
  -5   1   3 7831.16  141.81  23
  -3  -1   5 9156.00  211.72  22
  -1   3   5 9259.50  110.44  24
   5   3  -1 8322.31  211.01  23
   1   3  -5 6124.79  144.27  23
  -1  -3  -5 9405.22  251.50   1
  -5   3   1 6811.93  189.03  23
   1   5   3 8302.24  183.32  21
  -1   3  -5 8130.29  254.81  20
   5  -3  -1 8270.50  239.47   1
  -5   1  -3 8302.80  231.78  23
  -1  -3   5 7405.88  153.06   1
   5   3   1 8743.71  238.96  23
   1   5  -3 8445.29  221.93  20
   5  -1  -3 7633.66  195.78   1
   1  -3   5 9478.67  133.09  22
  -3   5   1 7403.03  229.14  21
  -3  -1  -5 8162.97   59.80  26
   1   3   5 9352.28  221.35  23
  -1   5   3 8766.30  254.18   1
   5  -3   1 8119.96  241.57  20
  -3  -1  -5 8861.28  241.36  20
   5  -1   3 9311.99  232.06  22
   5   3   1 9337.66  250.32  22
  -5   3  -1 6998.27  226.56  21
   3   5  -1 9124.79  188.97  22
  -1  -3  -5 9043.59  197.95  21
  -3  -5  -1 7701.13  193.17   1
  -5  -3   1 8259.25   89.95  26
   5   1   3 8855.65  115.72  24
   1  -3   5 8817.40   67.24  25
   3  -5  -1 8166.20  225.08  20
   1  -5  -3 7137.06  214.86  21
  -1   3  -5 8041.27  198.85  23
  -1  -5   3 7105.23  148.88   1
   1  -3  -5 8665.97  227.72  21
   3   5  -1 9238.27  160.75   1
   5   3  -1 8784.39  220.74  22
   3  -1   5 8180.20  257.68  20
   5  -1  -3 9228.98  261.40  21
   5  -3  -1 8723.02  239.35  20
  -3   5  -1 8168.78  167.32  22
  -1   5  -3 8378.38  237.46  20
  -3  -1   5 7897.56   60.75  26
   5   1   3 6002.43  167.92  20
  -1  -3  -5 7718.42  231.74  20
   5   3  -1 8727.99  188.40  21
  -5   1   3 8090.38  244.45  21
  -1   3   5 9029.32  245.97   1
   1   3   5 9321.34  124.54  24
  -3   1  -5 8805.47  250.74  20
   5   1   3 9025.14  235.90  23
   1   3  -5 8111.43  261.37  20
  -1   5   3 7673.18  207.24  21
   3   5   1 9087.64  215.87   1
   3   1   5 9493.17  126.04  24
  -5   1  -3 6807.05  202.55  21
   5  -1   3 7918.70  237.28  20
   1  -5   3 7832.61  252.89  20
   1   5   3 9049.06  249.18   1
   5   1  -3 9345.89  250.74  21
  -3   1   5 9117.48  216.86   1
   5   3  -1 6780.85  145.37   1
   3   5   1 6962.62  114.70  21
   3  -5   1 8338.98  251.57  20
  -1  -5   3 7410.88  227.89  20
   1  -5   3 8174.40  200.23   1
  -3  -1   510570.72  172.35   1
  -5   3   1 8496.39  220.19  22
   3   1  -5 9736.94  290.24  21
  -3   1  -5 8522.00  223.62  23
  -5  -1   3 8748.89  218.70  22
   3  -1   5 9744.46  222.53  22
  -1  -3   5 9571.27  133.31  22
   5  -3  -1 7303.03  240.40  21
  -5  -1  -3 6742.15  138.36  21
  -5   3  -1 7531.76  217.19  23
   1  -3  -5 9213.73  250.33   1
   5   3   1 7781.89  195.67   1
   5   1  -3 6822.86  137.78   1
  -5   1  -3 7930.45  214.80  20
   3   5  -1 8775.48  135.48  20
   3   1   5 9353.85  225.83  23
  -3   5  -1 7137.44  238.71  21
   3  -5   1 8309.64  241.12   1
  -1  -5  -3 8611.14  243.56   1
  -5   3  -1 8285.69  206.22  22
  -5  -1  -3 7533.92  226.01  23
   3  -1  -5 8659.49  207.20   1
  -3   3  -5 6996.76   96.75   6
   3   3  -5 7299.33  258.12  20
  -5   3  -3 6205.94  214.78  20
  -3  -3  -5 6779.99  105.67  15
  -5  -3   3 6484.44  178.89  22
   5   3  -3 7248.85   78.39  25
  -3  -3   5 7327.39  153.25  22
   3  -5   3 7567.08  113.02   9
   5  -3   3 6214.41  227.43  20
   5   3   3 8117.80  243.23  22
   3  -5  -3 5762.78  218.74  21
   5  -3  -3 6038.70  208.14   1
   5   3   3 7739.00  237.86  23
  -3   3   5 7117.22  229.97   1
   5  -3   3 6998.15  109.70  25
   3  -3  -5 7059.23  235.27  21
   3  -3   5 7095.08   87.32  25
   3  -3  -5 6755.65  219.60   1
  -3  -5  -3 6768.59  108.86  15
   3  -5  -3 7016.21  239.28   1
  -3   5  -3 5968.68  214.70  20
  -3   5   3 6688.45  219.55  21
  -3   3  -5 6974.14  211.83  23
   5  -3   3 7374.76  193.68  22
   3   3   5 7453.04  244.79   1
  -5   3   3 5454.67  150.31  23
   5   3  -3 4456.85  184.15  20
  -3  -3  -5 7809.60  137.66  21
   5   3  -3 7545.55  228.87  21
  -5  -3  -3 6806.19   80.24  26
   3   3   5 7693.08  127.17  24
  -5  -3   3 6832.42   99.19  19
  -5  -3   3 6874.99   80.95  26
   3   5  -3 6466.56  179.05  20
   3   3   5 7896.85  236.14  23
   5  -3  -3 6635.43  243.01  21
   5   3   3 6456.88  216.62   1
  -5   3  -3 5752.24  216.02  21
  -5   3   3 8238.38  235.74  22
  -3   3   5 7401.58  113.32   4
  -5   3  -3 7333.19  226.65  23
   3  -3   5 7379.44  272.04  20
  -3   5  -3 6834.55   95.24   6
  -3   5   3 6715.12   96.70   7
   3   5   3 7272.09  229.60   1
  -3  -5  -3 7161.04  217.23   1
   5   3  -3 6660.18  155.78  23
   5   1   5 7404.78  229.16  23
   1   5   5 6611.18  235.37   1
  -5  -1   5 6502.11  198.32  22
   1  -5  -5 5956.31  104.32   8
  -5  -1   5 7502.18  111.82  19
  -5   1  -5 6517.77  219.83  20
  -5   5  -1 6112.15   96.89   7
  -1  -5   5 6559.25  121.68   4
   5   5   1 6215.59  185.19   1
  -5  -1  -5 6568.72  200.92  20
   5  -5   1 6084.38  111.24   9
  -5   1  -5 8718.13  128.19  13
  -5  -5  -1 6161.18  105.35  15
  -1  -5   5 4579.36  113.20   1
  -5   1  -5 6159.07  218.06  23
  -5   5   1 5156.55  212.11  21
  -5  -5   1 5766.83   93.37  16
  -1  -5  -5 6370.93  104.83  15
   5  -1  -5 6673.44  244.50  21
   5   1  -5 3543.91   93.56   1
   1  -5  -5 6088.32  100.07  14
  -5   1   5 6317.37   95.55  19
   1  -5  -5 5253.56  190.92  21
   5  -5  -1 5240.18  216.78   1
  -5   1   5 7425.98  230.23  22
   5   5  -1 7184.61  133.79   1
   5  -5   1 6329.04  112.82   5
  -5   5  -1 6103.74   95.98   6
  -1  -5   5 3704.02  102.12   1
   5   5   1 5209.36  205.30  23
   1  -5  -5 6400.12  233.56   1
  -5  -5  -1 5690.30   94.09  19
  -5  -5   1 6086.90   93.68  12
   5  -1  -5 5966.28  102.28   5
  -5   1   5 6223.91  111.81   4
   5   1   5 5823.76  216.11   1
   5   1  -5 6166.54   92.00   8
   5   5  -1 4960.41  183.93  23
   1  -5   5 6125.77  105.66   9
  -5   1  -5 5969.96  108.07  11
  -5   5   1 6168.13   91.23   6
   5  -1   5 6811.78  208.50  22
  -5   1   5 5803.84  106.62  10
   1  -5   5 6557.80  264.48  20
   5   1  -5 7063.70  247.08  21
  -1  -5  -5 5162.14  162.35  21
  -5  -1   5 5953.79  103.51   4
  -5  -1   5 6023.93  105.11  10
  -1  -5  -5 6024.81  105.76   8
   5  -1  -5 4887.46  162.12   1
  -5   5   1 6588.26  201.27  22
   1   5  -5 6370.01  229.66  20
   5   1   5 7333.82  232.43  22
  -1   5  -5 6479.91  238.35  20
  -1  -5  -5 6065.88  104.06  14
   5   1   5 6723.62  117.19  24
   1  -5  -5 5980.82   95.60   5
   5   5  -1 6647.98  192.71  22
  -1  -5   5 5804.99  104.62   9
  -5   5  -1 6051.99  172.86  22
   5  -1   5 5738.74  226.40  20
   5  -5   1 5596.96  226.26  20
   5  -5  -1 6140.33  110.80   5
   5   5   1 6604.84  213.57  22
   5   5  -1 6602.92  164.03  21
   5   5  -3 4047.65  150.24  23
   3  -5  -5 5213.18  103.24   5
  -5   3   5 5314.05   97.36   7
  -3   5  -5 5507.46  220.96  20
  -3   5  -5 5483.95   96.53   6
  -5   5   3 5844.93  203.71  22
  -3   5  -5 5163.83  191.36  23
  -5   3  -5 5797.89  211.08  23
  -5   3  -5 5417.22  216.64  20
   5   3  -5 4717.62  206.44  20
   3  -5  -5 4967.25  211.36   1
  -3   5   5 5307.83  213.54   1
  -3   5   5 5334.12   90.82  10
   5   5   3 6015.70  214.07   1
   5   5  -3 5805.70   62.78  25
   3   5  -5 5610.07  211.89  20
   5  -5   3 4552.75  210.94  20
  -5  -3   5 5119.24  158.12  22
  -5   3   5 3897.05   99.27  23
  -3  -5   5 5115.99   86.25  19
  -5  -5  -3 5375.42   86.58  18
  -3  -5  -5 5264.07  101.87  14
  -5  -3  -5 5015.33  102.56  11
  -5   5   3 4644.17  203.69  21
   5   3   5 6188.83  222.09  23
  -5  -5  -3 5257.06  108.18  15
  -3   5   5 5151.04   73.73  24
   3  -5  -5 4452.68  197.63  21
   3   5   5 5497.66  215.76  23
  -5  -5  -3 6718.20  103.41  12
  -5  -5   3 5204.66  103.25  16
  -5   5  -3 4961.60  198.28  23
  -5  -3   5 5677.96   70.60  26
   3  -5   5 5767.22  105.88   9
   5  -3  -5 4396.67  181.26   1
   5  -5  -3 4217.97  196.05   1
   5  -3   5 5390.46   96.41  25
  -5  -5   3 5594.41  102.27  12
   5  -3   5 5708.92  167.21  22
  -3  -5   5 5387.56  109.47  16
   5  -3   5 4894.75  219.85  20
   5   5  -3 5018.23  189.60  21
   5   3  -5 6980.62  253.42  21
  -5  -5   3 5185.89  100.30  19
  -3   5  -5 5608.77   98.22   2
   5  -5   3 5593.64  110.36   9
   3  -5  -5 5255.37   98.49   8
   5   5   3 5536.77  204.85  22
  -5  -3  -5 5387.88   93.58  14
  -5  -3   5 5651.02   98.81  19
  -5   5  -3 4074.17  199.69  21
   5   3   5 4970.63  205.85   1
  -3  -5  -5 5237.52  108.41  15
   3   5   5 5903.85  230.75   1
   3  -5  -5 5600.78   92.87  14
  -5  -3   5 5576.74   96.10  10
   5  -3  -5 5036.68  101.65   5
   5  -5  -3 5447.98  112.21   5
  -5  -5  -3 5067.58   85.62  19
   5   3   5 6219.59  124.51  24
  -5   3   5 5534.11  108.78  10
  -3   5   5 5290.04  213.23  21
  -3   5   5 5210.70  101.93   7
  -3  -5  -5 4558.84  138.55  20
   5  -3  -5 5278.02   87.08   8
  -3  -5   5 5588.05   99.89   4
   5   5   3 5414.29  223.35  23
   5   5  -3 4517.01  146.55  20
  -5   5   3 5511.13   99.57  10
  -5  -3   5 5302.03   93.25   4
   3   5  -5 5966.25  106.36   2
  -5  -5   5 4458.75   84.90   4
  -5   5  -5 4473.67   85.00   2
   5  -5  -5 4251.27   91.51   8
  -5  -5   5 4710.25   83.91  10
  -5   5   5 4437.79   99.96  10
  -5   5  -5 4502.98  101.89   6
   5   5  -5 4801.93   94.21   2
  -5  -5   5 4413.16   98.79  19
   5   5  -5 4778.87  205.27  21
  -5  -5   5 4203.28  106.54  16
   5  -5  -5 4010.76  104.82   5
   5  -5   5 4755.99  104.42   9
  -5  -5  -5 4259.24  111.01  15
   5   5  -5 4293.17  179.27  20
  -5  -5  -5 4623.53   89.56  18
  -5  -5  -5 4315.13   96.75  14
  -5  -5  -5 4205.21   74.19  19
   6   0   0 1338.87   96.10  22
  -6   0   0 1096.09   77.98  23
  -6   0   0 1182.34   86.83  22
   0  -6   0 1175.91   81.87  20
   0   0   6 1427.14   89.80   1
   6   0   0 1045.81   73.13  23
   6   0   0 1218.13   81.67  20
   0   6   0  955.13   77.18  21
   0  -6   0 1106.80   83.72   1
   6   0   0 1137.95   45.02  25
  -6   0   0 1114.18   78.89  21
   6   0   0  994.90   78.48  21
   6   0   0 1045.26   26.57  24
   2  -6   016764.64  341.37  20
   0   6  -216629.23  299.98  20
   6   2   019574.40  370.93  22
   6   0  -218737.78  307.39   1
   0  -2  -619554.48  408.54  20
   0   6   216232.16  291.22  21
   2   6   014984.41  270.83  21
  -2  -6   017309.14  296.42   1
   0   2   620745.94  383.41   1
   6   0  -220261.78  379.49  21
  -2   0  -620261.60  395.00  20
   6  -2   018120.69  189.72  25
  -2  -6   0 9586.79  188.12  20
   2  -6   018068.55  370.39   1
   0  -2   620841.84  322.11   1
   6   0   218712.08  149.56  24
   2   6   022276.57  321.09   1
   0  -6  -217616.15  365.60   1
   0  -6  -219026.73  299.96  20
   0   2  -619874.78  413.64  20
  -2   0  -619428.65  332.87  23
   0  -2  -622073.27  384.75   1
   6   0   216185.95  306.95  20
   6   0   218062.66  337.70  23
   0   2  -620071.09  265.00  23
   0  -6   216201.22  350.29  20
  -2   6   015869.79  349.55  21
  -6   2   017220.18  321.03  23
   0   2   620933.58  186.00  24
  -2   0   620811.82  325.08   1
   0  -6   217033.37  303.59   1
   0   6   220145.19  383.45   1
   6  -2   019776.13  374.16  20
  -6   0  -218474.74  360.53  23
   0   2   617781.47  285.28  23
   6   2   018096.41  248.59  20
   2   0   619411.60  306.05  23
  -6   2   016109.71  337.62  21
  -6   0   217507.23  273.63  23
   6   2   019651.02  273.05  21
  -6   2   018560.03  344.14  22
   2   0   619980.14  381.72   1
   0  -2  -623126.37  388.72  21
   6   0  -217829.73  174.67  25
   6   2   021435.19  347.11  23
  -2  -6  -2 1207.35   48.06  15
   2  -6  -2 1254.59   47.21   5
   6   2   2  715.41   49.19  20
   2   6   2  970.01   54.79  21
  -2   6  -2 1215.55   40.15   6
   2   2   6 1401.34   87.64  23
   2   6  -2 1261.22   46.67  22
   6  -2  -2 1169.75   89.31   1
  -2  -2  -6 1137.54   89.77  20
  -6   2   2 1303.56   94.89  22
  -2  -6  -2  728.34   40.26  20
   6   2  -2 1118.84   56.70   1
   6   2  -2 1285.38   43.02  25
   2  -6   2 1138.41   89.68   1
   6   2  -2 1230.35   72.15  23
   6   2   2 1389.42   97.52  23
  -6   2  -2 1260.30   89.26  22
   6   2   2  969.16   82.95   1
  -2   6  -2 1189.64   47.01  22
  -6   2   2 1373.04   47.93  10
  -2  -6   2  873.67   52.98   1
   2  -6  -2 1166.04   84.76  20
   2   6   2 1369.21   95.97   1
   2  -2  -6 1365.79   95.42   1
  -2   2   6 1223.48   46.43   4
  -6  -2   2 1223.57   41.66  12
  -6   2  -2 1036.24   85.69  21
  -6   2   2 1091.45   95.30  21
   6  -2  -2 1097.28   99.27  21
   2   2  -6 1427.69  117.76  20
  -6   2   2 1080.87   70.56  23
  -2   6   2 1144.86   89.50  21
  -2   2   6 1346.79   94.39   1
   6  -2   2 1225.04   97.79  20
  -6   2  -2 1238.57   93.06  23
   6   2  -2 1285.13   88.64  21
  -2   2   6 1189.13   43.90  10
  -2   6  -2  902.27   90.04  21
   6   2   2 1407.65  104.91  22
  -2  -2   6 1478.47   68.34   1
  -2   2   6  910.02   46.70  23
  -6  -2   2 1235.28   88.17  22
  -2   6  -2  997.26   84.26  20
  -2  -2   6 1285.45   49.79   4
   2  -2   6 1233.52   91.78   1
   2  -2  -6 1325.40  100.66  21
   2  -2  -6 1229.56   41.20   8
   2  -6   2 1074.92  101.44  20
  -2  -2  -6 1445.14   85.02  21
   6  -2  -2 1183.97   91.82  20
   6  -2   2 1240.35   89.80  22
   2  -2   6 1295.96   55.16   4
   2   6  -2 1149.79   70.00  20
  -2   2  -6 1197.51   80.73  23
  -2  -6  -2 1280.08   93.15   1
   6   2  -2 1233.10   89.43  22
   0  -6  -4 1181.08   48.87   8
   4   6   0 1302.57   85.89  22
  -6   0  -4 1113.61   94.43  23
  -4   0   6 1484.50   99.49  22
   6   4   0 1130.59   71.73   1
   4   0  -6 1521.17  117.95  21
   0   4  -6 1314.14   49.84   2
  -6  -4   0 1308.58   45.46  12
   6   0   4 1363.76  101.17  22
  -6   0   4 1301.25   95.54  22
   0  -6  -4 1184.71   46.58  14
   0  -4   6 1393.50   61.55   4
   6   0  -4  828.61   60.55   1
   0  -4  -6 1204.96   84.64  21
   4   6   0  973.33   56.17  21
   0  -4  -6 1394.52  106.48   1
   6   0  -4 1189.99  102.41  21
   4   0   6 1510.77  101.44  22
   6  -4   0 1295.61   48.42   5
   0  -6   4 1201.10   50.10   9
  -6   4   0 1257.07   41.69   6
   0   4  -6 1178.10   73.69  23
  -6   0   4 1289.69   46.12  19
   0   4   6 1399.83   51.70  24
  -4   0  -6 1054.05   86.88  23
  -6   0  -4 1702.30   56.89  13
   0   4  -6 1423.26  114.10  20
  -6   4   0 1176.64   91.10  23
   4   6   0 1328.85   76.94   1
   0   6  -4 1225.10   95.89  20
  -6   0  -4 1181.29   85.23  20
  -4   0   6 1260.53   50.76   4
  -4   0   6 1220.68   39.23  19
   0  -6  -4 1286.37   48.50  15
   4   0  -6 1282.35   43.92   8
   0   6   4 1127.53   82.66  21
   0   6   4 1346.34  107.02   1
  -4   0  -6 1261.02  100.57  20
  -6   4   0 1329.18   91.05  22
   4   0   6 1278.99   91.88  23
  -6   0   4 1193.74   41.36  12
   0  -6   4 1102.24  107.82  20
   6   4   0 1348.73   53.77  21
   0   4   6 1199.05  100.33   1
   0   6   4 1191.09   42.37   7
   6   4   0 1309.23   96.85  23
   6   0   4 1178.61   92.53  23
   0  -4   6 1162.17   43.96   9
   6   0  -4 1159.72   42.29   5
  -4  -6   0 1201.58   45.88   3
   6   4   0 1345.34   99.16  22
  -6   4   0  918.54   92.46  21
  -4  -6   0 1209.63   48.65  15
   6   0   4 1178.67   45.62  24
  -4   6   0 1230.84   43.39   7
  -6   0  -4  990.05   69.95  21
  -6  -4   0 1203.25   38.61  26
   6  -4   0  904.00   87.35   1
   0  -4   6 1112.73   70.22   1
  -6   0   4 1288.49   49.99  10
  -4   6   0 1349.57   82.05  22
   0   4   6 1047.51   77.39  23
   6   0   4 1040.08   91.24  20
   4   0  -6 1146.40   69.75   1
   4  -6   0 1263.64   53.56   5
   6  -4   0 1174.82  101.79  20
  -4  -6   0 1105.60   43.37  17
  -4   6   0  860.05   89.00  21
   4  -6   0 1086.90   96.83  20
   0  -6   4  931.70   67.04   1
  -4   0  -6 1222.11   48.87  11
  -6  -4   0 1160.53   43.46  19
   4  -6  -211325.51  325.85   1
   4  -2  -612161.89  281.24   1
  -6   4  -215609.68  150.50  13
  -2  -4  -613074.21  158.36   8
   4  -2  -613145.06  140.48   2
  -2  -6  -412984.33  137.30   3
  -4   6   214200.16  295.54  22
  -2   6   412834.17  341.68   1
   6   2  -415234.49  351.32  21
  -4  -2   613517.11  167.42   4
   4   2  -614313.85  144.47   2
   4   6   214175.74  310.11   1
  -6  -2   415372.12  175.56  19
   6   4  -213297.56  277.15  23
  -2   6  -412893.53  142.09   6
   2   6   414635.30  348.02   1
   6   4  -214473.90  141.28  25
  -4  -6  -213459.17  157.36  19
  -6   4   211052.13  259.31  23
   6  -2  -413343.80  356.26  21
   4  -6  -213235.09  176.53   5
  -4  -2   615588.27  154.34  19
  -2   4   613357.27  167.56   4
   2  -6   413688.08  141.46   3
  -6  -4   213709.07  134.15  13
  -2  -4   612906.82  158.61  16
  -6   2  -411709.40  298.97  20
  -4  -6   213420.74  163.05  16
   6  -2  -410236.33  262.73   1
   2  -4  -612904.90  150.54   5
  -6   2   410806.53  174.31  23
  -4   6   213089.10  149.39   7
   4  -6   210968.77  322.99  20
  -4  -6   213532.44  164.51  15
  -2   6   412427.69  312.02  21
  -4  -2   613543.34  162.49  10
  -6   4  -212832.78  270.99  22
  -6  -4  -212591.38  134.13  19
  -2  -6  -413012.57  192.37  20
   4   2   615693.05  190.35  24
  -2   4   613846.38  345.02   1
  -4  -2  -612257.49  220.12  21
  -2  -4  -613130.76  159.39  15
  -6  -2  -412810.22  155.63  11
  -2   4   614244.25  143.11  24
  -6  -4  -213104.32  159.15  15
   4  -2  -613504.62  164.52   5
   2  -4   613337.85  141.69  22
  -6   4   214854.68  320.03  22
  -4  -2   614792.75  271.17  22
  -2  -4   6 9409.75  115.03  22
  -6   4   213546.18  149.33   7
   6  -4   213116.25  164.26   9
   6   4  -214514.13  279.21  21
   2  -6  -4 9968.28  291.62  21
   2  -6  -412622.58  341.16   1
  -4  -2  -613286.36  168.37  15
  -4   2  -613735.86  165.25  11
  -2   4  -614964.60  167.17   2
   2   4  -614813.53  370.57  20
  -4   6  -212620.07  217.94  22
  -6   4  -210378.20  304.95  21
   4   6   214042.16  308.72  22
  -6  -2  -418689.91  191.90  13
   6   4  -214150.16  299.26  22
  -6  -4  -214652.18  147.90  13
  -4   2   612268.74  145.43   7
   4   2  -613704.63  378.61  20
   4   2  -616706.79  413.27  21
  -6   2  -410681.06  286.44  21
  -4   2  -612808.24  155.30   6
   6  -4  -210963.41  308.90   1
  -2  -6   412753.47  139.12  19
   4  -6   210390.81  298.90   1
  -4  -6   213343.71  142.29  12
  -6   2  -412976.34  148.45   6
   2  -4  -612905.05  154.60   8
  -2   4  -613218.01  145.08   6
  -6   4   213631.92  130.29  13
  -4   2  -613424.44  137.21   2
   6  -4  -213458.37  166.62   5
   6   4   213124.96  294.46   1
   4  -6   214291.26  179.49   9
  -2   4  -613226.59  292.53  23
  -4   2   612752.70  176.95   4
  -4   2  -613450.79  341.50  20
   2  -4  -612575.89  316.98  21
   2  -6  -413164.77  164.97   5
  -6  -2  -413362.86  168.19  15
  -6   4  -213458.58  146.70   6
   6  -4  -211012.34  334.22  21
  -6   4  -212883.67  323.39  23
  -2  -4   613872.70  176.96   4
  -6  -4   213060.74  157.75  19
  -2  -6   412575.95  136.56   3
  -4   2  -614476.83  324.81  23
  -4   2   612770.11  165.77  10
  -4   6  -212592.98  150.85   6
  -6  -2   413122.79  157.48  12
   6  -2   414295.85  300.97  22
   2   4   613784.89  327.56  23
   6   4  -2 6962.06  187.42  20
  -4   6  -210273.04  315.12  21
   6  -2   411725.75  327.88  20
  -6  -4   213410.03  130.71  26
  -6  -2   413845.85  160.60  10
   6   2   413927.08  176.33  24
  -4   6   211203.03  309.50  21
   2   4  -615336.30  173.29   2
   2   4   614546.78  187.62  24
   2  -4   613446.47  147.45   9
   2   4   614416.40  361.61   1
  -4  -6  -213035.01  147.83  18
   2  -6   411761.83  347.46  20
   4  -2  -613084.90  149.87   8
  -6   2  -413325.59  323.02  23
  -4  -6   212619.33  156.44  19
   2  -4  -613395.70  332.97   1
  -6   2   413179.93  137.08   7
   4   2   614017.94  356.18   1
   6  -2   413643.85  171.15  25
   6   2   410174.60  315.18   1
   2  -6   410567.85  260.79   1
  -4  -2  -613195.71  168.89  11
  -2  -6  -414059.36  159.61  18
   4   2   615973.67  333.26  23
   6   2   415339.56  345.72  23
   4  -6  -212822.30  161.98   9
  -2   6   413167.23  155.68   7
  -6  -2   412633.86  281.12  22
  -2   4   612917.07  148.55  10
  -2   4  -613849.40  371.54  20
   4   6  -214496.90  237.17  22
  -6   2  -418509.94  188.69  13
   4  -2   615106.50  280.36  22
  -6   2   413552.81  172.82  10
  -2  -4  -613321.21  299.40  20
  -6  -2   413689.83  120.88  26
  -4  -6  -212946.05  151.64   3
   2  -6  -412326.74  160.45   8
  -4  -2  -612731.77  139.12   2
  -2  -6  -413384.95  173.06  15
  -2  -6  -414054.00  334.74   1
   2  -4  -613570.90  150.49  14
   6   4   215316.49  349.46  22
   4   6  -213069.59  188.33  20
   4  -2   613171.44  366.42  20
  -6  -4  -213275.23  130.14  26
   2  -6   413946.80  174.74   9
   2   6  -413778.32  307.50  20
  -6  -4  -215733.81  165.09  12
   2   4  -6 8709.73  166.25  23
   2  -6  -413350.84  139.64   3
  -4  -6   212631.88  150.92   3
  -4  -6  -213178.78  146.92  17
   4  -6  -212725.99  311.90  20
   6   4   214310.21  345.00  23
  -2  -4  -613472.37  235.76  21
   6  -4   211714.32  332.84  20
  -6  -2  -412896.31  117.45  26
   6  -2  -413501.00  157.07   5
  -4   6  -213621.70  149.08   7
   6  -4  -213494.96  333.44  20
  -2   6  -412913.45  328.44  20
  -4  -2  -614495.57  303.39  20
  -4   2   613774.79  297.66   1
  -6   4   4 1167.18   48.83   7
  -6  -4  -4 1061.55   36.22  19
   4  -6   4 1293.36   57.71   9
  -4  -6  -4 1097.36   43.62  19
  -6  -4   4 1254.18   43.87  10
  -4   4  -6 1229.62   47.32   2
   6   4   4  998.20   92.04   1
   4  -4   6 1040.80   60.86  22
   4  -4  -6 1107.65   46.06   8
  -4  -4  -6 1222.92   76.67  20
   6   4  -4  823.33   85.08  20
  -4   4   6  954.81   89.28   1
   6  -4  -4 1110.56   38.79   8
   6  -4   4 1093.11   48.48  25
  -4  -4   6 1117.83   51.57  16
  -4  -6  -4 1245.16   47.19  17
  -4  -4   6 1121.30   48.72   4
  -4   4  -6 1190.91   50.84   6
   4  -4   6 1213.10   46.22   9
  -4   6   4 1183.95   51.19   7
  -4  -6   4 1112.73   44.18   3
   4  -4  -6 1189.63   41.60  14
  -4   4   6 1109.61   48.80  10
  -6  -4   4 1167.29   52.21  19
  -4  -6   4 1072.99   48.70  19
  -6   4  -4  823.70   90.99  21
  -4   6   4 1175.17   43.93  10
   4   4  -6 1178.72  105.40  20
  -4  -6  -4 1165.48   47.51  18
  -4  -4  -6 1089.21   45.31   8
  -6   4   4  908.78   65.77  23
   6  -4   4 1177.76   49.12   9
  -4  -6  -4 1076.66   48.48  14
  -6   4  -4 1462.04   52.00  13
  -6  -4  -4 1123.02   52.94  15
   4  -4   6 1089.39   38.82  25
  -4  -6  -4 1135.75   44.31   3
  -6  -4   4 1144.56   36.90  26
   4  -4  -6  933.50   91.85   1
  -4   6  -4 1110.23   50.11   6
  -6   4   4 1135.77   51.68  10
  -6  -4  -4 1118.15   42.55  14
   4   6   4 1200.49  103.75   1
  -4   4  -6 1203.62   51.78  11
  -6  -4  -4 1275.88   50.38  13
  -4   4  -6 1157.90   94.23  23
   4   4   6 1260.07   59.71  24
  -4  -4  -6 1147.26   49.97  14
  -4  -4   6 1211.46   47.00  10
   6  -4  -4  723.99   82.69   1
  -4  -4   6  926.44   55.70  22
   6   4  -4 1237.90  101.08  21
   4   4  -6 1276.37   49.72   2
   4   6  -4 1005.80   76.56  20
  -6   4   4 1161.37   37.99   6
  -4  -4  -6 1040.65   51.88  15
   6  -4  -4 1075.73   51.21   5
  -4  -4   6 1135.14   44.68  19
  -4  -6  -4 1085.17   54.17  15
   4  -6  -4 1065.96   47.07   8
  -6  -6   010001.79  153.47  19
  -6   0   6 9784.37  162.94   4
   6   0  -610471.22  135.61   8
   0   6  -610390.99  165.56   2
  -6   0   610202.87  119.35   7
  -6   6   010557.40  145.70   6
   6   0   6 8474.51  273.42  20
  -6  -6   0 9970.65  152.67  15
   0  -6  -610438.53  142.43   5
   0  -6   6 7231.15  178.93   1
   0   6   610237.69  156.37  24
   6   6   011021.32  277.82  22
   0  -6   610780.98  198.71   4
   0  -6  -6 7853.07  232.06  21
   0   6  -610916.60  127.26   6
   0  -6  -6 9838.49  154.81  14
  -6  -6   010497.18  140.74  12
   0  -6   610289.26  163.06   9
  -6   0  -610362.15  276.48  20
  -6   0   6 9980.92  140.51  12
  -6  -6   0 9982.85  131.42  16
  -6   6   010031.64  245.35  22
   0  -6  -610709.69  152.82  15
  -6   0   611139.17  149.04  19
   0  -6  -610331.81  111.65   3
  -6   0  -610117.40  164.68  11
  -6   6   010468.88  150.22   7
  -6   0  -6 8266.21  218.92  21
  -6   0   610350.10  169.86  10
   6  -6   010431.40  173.86   5
   0  -6   6 9952.26  131.12  10
   6  -6   010111.99  168.43   9
  -6  -6  -2 1079.13   54.61  15
   2  -6  -6 1136.85   38.07   3
  -6  -2   6 1036.06   51.02   4
  -2  -6  -6  821.36   74.75  20
  -6  -2   6 1110.54   53.68  10
   6  -2  -6 1004.49   51.41   5
   6   2  -6 1049.60   47.63   8
   6  -2  -6  648.99   68.00   1
  -2  -6   6 1094.15   54.88   4
  -6  -2   6 1412.64   60.45  19
  -6   2   6 1004.96   55.60  10
  -6  -2   6 1095.11   31.08  26
  -2  -6   6 1022.36   39.56  19
  -6  -6   2 1081.13   50.95  16
  -2  -6  -6 1007.66   52.11  15
  -2  -6   6 1058.64   56.50  16
   6  -2   6 1113.74   87.70  22
  -6   6   2 1069.14   46.71   6
   6  -6  -2 1069.07   57.38   5
   6  -2  -6 1033.28   42.93   8
  -6   2  -6 1001.96   35.01   2
   2  -6  -6 1054.06   49.34  14
  -6  -6  -2 1064.46   49.87  19
  -6  -6  -2  995.73   37.02  13
  -2   6   6 1066.28   42.24  24
   6   2   6 1183.04   56.99  24
  -6  -6   2 1124.51   36.47  13
  -2   6  -6 1133.33   49.05   6
   2  -6  -6 1111.48   26.55  27
  -6  -6  -2 1223.37   48.32  12
  -2  -6  -6 1034.45   36.06   3
  -2  -6  -6  939.36   53.12   8
  -6  -2   6 1023.43   83.26  22
  -6   6  -2 1058.67   50.85   6
  -6   2   6 1040.21   44.58   7
  -6   2   6  999.12   38.52  12
  -2   6  -6 1117.24   53.04   2
   2  -6  -6  785.26   85.73  21
  -6  -2  -6 1053.77   79.31  20
  -6   2  -6 1054.73   56.30  11
  -6  -6   2 1003.03   46.86  15
   6   6   2 1154.01   90.61   1
   6  -2   6 1125.76   50.67  25
  -6  -6   2 1160.41   50.33  12
  -6   6  -2 1181.50   52.51   7
   6   6  -2  650.09   69.20  23
  -2   6   6 1062.96   41.61  10
   2  -6  -6  966.65   50.98   8
  -6  -6   2 1033.49   52.97  19
  -6   2  -6  809.19   84.31  21
  -6  -2  -6 1064.72   30.62  26
   2  -6  -6  994.04   48.87   5
   2  -6   6 1137.39   55.53   9
   2   6  -6 1154.51   55.30   2
   6  -6   2 1077.48   57.67   9
  -2   6   6 1065.60   52.49   7
  -6  -4   6 9789.79  163.35  19
  -6  -6   4 8515.34  156.92  19
   4  -6  -6 7474.41  144.13   8
   6   4   6 8794.31  168.36  24
  -4  -6  -6 8407.16  118.92  19
  -6  -4   6 8903.32  143.63  10
  -6  -4  -6 8736.52  115.82  18
  -4  -6  -6 8624.70  145.40  18
  -4   6  -6 8745.90  148.90   6
  -6  -6  -4 7627.06  104.62  17
   4   6  -6 9303.88  155.65   2
   6   6  -4 8250.99  123.58   2
   6  -4  -6 8462.67  137.24   8
  -4  -6   6 8036.00  162.52  16
  -4   6   6 8329.77  155.05   7
   6  -6  -4 7716.23  127.29   8
  -6   4  -6 8354.73  161.95  11
  -4  -6   6 8474.93  137.74   4
  -6  -4  -6 8321.69  140.03  14
   6  -4  -6 8173.69  161.17   5
   4  -6   6 8959.36  155.57   9
  -6  -6   4 8270.95  112.08  13
  -4   6  -6 8467.70  141.37   2
  -4   6   6 8062.88  137.50  10
  -6   4  -6 8064.71  111.46   2
  -6  -6   4 8263.46  158.66  16
   4  -6  -6 7416.45  152.23   5
  -4  -6  -6 8167.36  153.13  14
  -6  -6   4 8295.73  151.85  12
  -6  -4   6 8372.76  160.31  12
   6  -6   4 8739.78  160.93   9
  -6  -4   6 8364.14  135.26   4
   6  -4   6 8009.74  129.58  25
  -6   4   6 7694.08  156.10  10
   6  -6  -4 7775.82  164.40   5
  -6   6  -4 7507.99  109.51   2
  -4  -6  -6 7894.81  162.77  15
   6   4  -6 8128.22  117.22   2
  -6   6   4 8532.30  128.32   6
  -6  -6  -4 7723.75  122.05  19
   6  -4   6 8549.44  128.91   9
   4  -6  -6 8456.60  115.78   3
  -4  -6   6 8162.15  134.31  19
  -6  -6  -4 8057.61  125.69  18
  -6   4   6 8060.10  141.86   7
  -6  -6  -6  753.94   37.02  19
   6  -6   6  817.20   51.50   9
  -6   6  -6  720.99   39.80   2
  -6  -6  -6  718.92   55.40  15
   6   6  -6  761.45   44.12   2
   6  -6  -6  766.27   57.55   5
  -6  -6   6  853.29   56.86  12
  -6   6  -6  826.71   55.32   6
  -6  -6   6  794.36   54.17  19
  -6  -6  -6  731.72   42.31  18
  -6  -6  -6  736.42   48.54  14
   6   6   6  784.20   56.14  24
   6  -6  -6  732.53   45.50   8
  -6   6   6  679.40   48.65  10
   1   7   1 4755.10  156.88  21
   1  -7   1 6195.13   75.55  27
  -1   7   1 4708.56  180.56  21
  -1   7  -1 5899.35   92.32   6
  -1  -7  -1 4037.52  139.64  20
  -1  -7   1 4876.10  168.63   1
   1  -1  -7 5939.23   98.99   2
   1  -1   7 6584.27  213.10   1
   1  -7   1 6323.21  111.12   9
  -1  -1   7 7075.84  194.12   1
  -1   1  -7 6605.76  181.74  23
   7   1  -1 6520.94  114.85  25
   1   7   1 6009.75  206.13   1
   1  -7  -1 6600.79  119.67   5
   7   1   1 6694.75  230.47  22
   7   1   1 5929.28   86.13  24
  -1  -7  -1 5356.06  194.49   1
   1  -1   7 6203.07  119.28   4
   1  -7   1 6781.35  131.66  15
  -1  -1  -7 6179.41   95.92   8
  -7   1  -1 5868.79  205.48  22
   1  -7   1 5054.44  193.99   1
   7   1  -1 6006.07  176.12  23
   1  -7  -1 6808.11  126.75  15
   1  -7   1 5230.15  200.41  20
  -7   1   1 6989.15  100.20  19
  -1  -7   1 6112.18  108.98  19
  -1  -1   7 6441.75  122.50   4
  -7   1  -1 5893.57  204.48  23
  -7   1   1 6387.27   97.98  13
  -1  -7  -1 5838.83   99.27  18
   7  -1   1 6407.20  124.34  25
  -7   1   1 6565.11  218.23  22
   1  -7  -1 5413.46  187.66  20
  -1   7  -1 4736.54  196.56  21
   7  -1  -1 5823.94  112.27  25
   1  -7  -1 5927.35   95.48  18
   7   1   1 6800.39  125.39  25
   7   1  -1 6401.28  222.88  22
  -1   1  -7 6436.92   93.29   8
  -7   1  -1 6917.48  104.89  13
  -7   1  -1 5043.51  180.49  21
   7   1   1 5075.19  160.98  20
  -7   1  -1 7009.87  102.93  12
  -7  -1  -1 7218.95  109.10  12
  -7   1   1 6651.26   93.73  12
  -1   7  -1 6494.47  129.50  22
  -7  -1   1 6461.08  100.96  12
   1   1  -7 6361.75  101.12   2
  -7   1   1 6091.54  186.90  23
  -1  -1  -7 7485.96  230.91  21
   1   1  -7 6574.68  101.62   8
  -7  -1   1 5440.55  201.92  22
   1   1   7 7047.09  175.74  23
  -7  -1   1 7474.92  112.96  19
   1  -7   1 6456.31  108.55   3
   1  -7   1 6444.00  102.36  17
  -1   1   7 6019.54  113.58   4
   1   7  -1 4443.98  176.05  21
   7   1   1 6593.30  209.38  23
  -1  -7   1 6215.06  106.55   3
  -1   1   7 6966.21  215.53   1
  -1  -1  -7 6913.75  253.97  20
  -1  -7   1 6062.98   75.13  27
  -1   1   7 5966.97  110.12  10
   1   1   7 6964.58  230.66   1
   7  -1  -1 5316.80  211.06  21
   7   1  -1 5614.93  191.59  21
  -1  -7   1 5894.43  102.87   9
  -7   1   1 6059.60  215.92  21
   1  -1  -7 7570.36  253.51  21
  -1  -7   1 5873.53  102.97  17
   1   1  -7 6734.60  265.40  20
  -1  -7   1 4558.93  174.02  20
   7  -1   1 6294.52  220.06  22
  -1   1  -7 6487.78  244.27  20
  -1  -7  -1 6520.53  124.85  15
   7  -1   1 5601.55  198.16  20
   1   1   7 6367.23  113.61   4
   1  -1  -7 6639.42  257.69  20
   7  -1  -1 6145.31  202.86  20
   7   1  -1 6110.67  177.27  20
   1  -7  -1 5635.44  215.62   1
  -3  -1  -7 6202.98  228.29  20
   1   7   3 5506.63  215.32   1
  -3   7  -1 5632.01   92.03   7
  -7  -3   1 5394.72   85.88  26
   3  -7  -1 5287.64   86.82  18
   3   1  -7 5528.51  249.35  20
  -1   3   7 5795.49  215.06   1
   1  -7  -3 5309.19   97.11  18
  -3  -1  -7 5632.45  107.87  15
  -3   7  -1 5362.72  135.61  22
  -7   1   3 4619.45  131.24  23
   1   3   7 6249.55  232.40   1
  -7   3  -1 5334.15  190.73  22
   3  -1  -7 5602.46   98.26   2
  -1  -7   3 5547.93  101.35  19
  -1  -3  -7 5402.36   99.36   8
   1  -7  -3 5140.38  218.40   1
   1  -7   3 5668.69   92.97  19
   7  -3  -1 5732.70   99.73   5
   7  -1   3 4641.86  195.91  20
  -3   7   1 4199.91  187.88  21
   7  -1   3 6004.03  212.90  22
  -3   7   1 5430.46   92.56   7
  -1   3   7 5623.01  108.04   4
   7   1   3 3499.80  141.09  20
  -1  -7  -3 5391.76  212.84   1
   3  -7   1 4331.95  194.66   1
  -3   7  -1 5430.10   97.56   6
   7  -3  -1 4715.49  201.92   1
   3  -7   1 5899.82   93.83  17
  -7  -1  -3 7107.42  119.95  12
  -7   1  -3 6942.26  116.80  13
   1  -3   7 5527.86  183.40   1
  -7   3   1 5480.08   92.35   7
  -3  -7   1 5321.36  103.87   3
   7   3  -1 5869.53  106.86  25
   1  -3  -7 6250.94  221.47   1
   7   1   3 5436.32   96.99  24
   1   7   3 4153.52  138.56  21
  -1   7   3 4203.76  166.95  21
  -1  -7  -3 5518.44  115.50  15
  -3   1   7 6454.39  199.91   1
  -1  -3   7 6029.61  158.61   1
  -1  -7   3 3320.16  121.07   1
  -3  -1  -7 5364.85   95.70   2
  -7  -1  -3 5345.81   99.36  11
   3   7   1 6185.16  194.62   1
   7   1  -3 3459.66  117.03   1
  -7  -1   3 5800.55  109.60  10
   3  -1   7 5615.99  211.85   1
   3   1   7 5261.74  102.17   4
   7  -1  -3 5488.63  223.91  21
   1  -3  -7 5271.92   93.23   5
  -1   3  -7 5250.22   90.32   6
   3   1  -7 5652.05   96.47   2
   1  -7   3 3742.86  158.90   1
   7  -1  -3 4099.37  160.89   1
  -3  -7   1 3946.43  125.39   1
   1  -3   7 5950.12  135.65   4
  -3  -7   1 5443.93  109.79  19
   1  -7  -3 5324.62   69.64  27
   7   1   3 5615.79  206.47  23
  -7  -1  -3 5216.68  100.05  15
   7   3  -1 5499.50  161.78  21
   7   3  -1 5808.37  184.88  23
  -7   3  -1 5555.33  205.18  23
  -7   3  -1 6228.14   99.92  13
  -7  -3  -1 5989.64   98.91  13
  -1  -3  -7 6184.45  189.64  21
   1  -3  -7 5757.83  209.06  21
  -3  -7  -1 5029.81  172.77   1
  -7  -3   1 5797.36   95.06  13
  -7   3   1 5634.26   92.12  13
  -1  -3   7 5505.71  122.41   4
   3   1  -7 7299.80  274.05  21
   1  -3   7 5861.42   53.77  25
  -7  -3   1 5435.96  100.12  19
   1   3   7 5663.42  176.92  23
  -3  -7   1 5397.18  116.68  15
  -3   1   7 5460.36  114.82   4
  -3   1  -7 5787.76  106.72  11
  -7  -1   3 5357.42   97.25  12
   1   3  -7 5822.96  106.03   2
  -1   7  -3 5313.99   88.96   6
  -7   1  -3 5466.28  211.84  23
   7  -3   1 4938.12  207.10  20
  -3  -1  -7 5492.81  109.49  11
  -3  -7   1 4976.37   93.56   9
  -1  -3   7 5652.53  109.88  10
  -3  -7  -1 5163.92  102.25  17
   1  -3  -7 5056.69  101.27   2
   3  -7  -1 4120.60  197.82   1
  -3   1  -7 5369.38   94.11   2
   7   3   1 6001.13  209.44  23
  -1   3  -7 5323.31  163.87  23
   3  -7   1 4503.57  201.95  20
  -7   3  -1 4278.96  191.00  21
  -1   7   3 5259.87  217.97   1
   3   1   7 5908.82  225.66   1
   7   3   1 4645.80  163.54   1
   3   7  -1 5900.35  151.43  22
  -7   1  -3 4743.02   83.47   6
   7   3  -1 3964.61  125.90   1
  -7   3   1 4718.03  175.05  23
   1  -7  -3 5507.70   99.59   3
   3  -1  -7 5933.63  186.83   1
  -7  -3  -1 5376.46   91.22  19
   1   3   7 6143.24  115.60  24
  -7  -1   3 5191.01  196.13  22
  -3   1  -7 5417.46  190.19  23
  -3   1   7 5285.04  109.59  10
  -7  -3  -1 5369.80   92.32  15
  -3  -1   7 5524.16  110.58  10
   3   1  -7 5745.69  103.52   8
  -1   3   7 5217.15  100.80  10
  -7   3   1 5582.63  201.89  22
   1  -7   3 4855.99  215.06  20
   7   3   1 6137.94  226.31  22
   7  -3  -1 4271.08  206.99  21
  -1  -7   3 5325.00   98.61   3
   7   3  -1 6070.26  217.89  22
   1   3   7 5199.48  100.04  10
   1   3   7 5421.99   98.59   4
  -3  -1   7 6572.16  165.42   1
   3   1   7 6121.30  193.29  23
   1  -7   3 5335.33   70.40  27
   1  -7   3 5564.48  100.74   3
  -1  -7  -3 4856.05  143.43  20
  -7   3  -1 5547.43   94.90   7
  -1  -3   7 5138.55   88.56  16
  -1   3   7 4759.01  133.74  23
   3   7   1 3977.51  110.29  21
  -7   1  -3 4300.54  164.57  21
   7   1  -3 5760.82  215.38  21
   1  -7  -3 5865.98  115.07  15
  -7   3   1 4426.83  196.93  21
   3  -1  -7 6252.72  243.06  21
  -7  -1  -3 3796.80  112.65  21
  -1  -7   3 4585.99  195.90  20
  -1  -3  -7 5705.34  223.06  20
   3  -1   7 5703.51  123.46   4
   1   3  -7 5752.62  240.50  20
  -1   3  -7 5774.06  233.72  20
  -7   1   3 5561.70   88.93  12
  -3   1  -7 5906.10  226.88  20
  -1  -7  -3 5345.05   97.81   3
  -1  -3  -7 5589.79   97.32  15
   7  -1  -3 5449.88   93.27   5
   3  -7  -1 4806.76  196.53  20
   1   7  -3 4873.16  171.17  20
   7   3  -1 4635.17  118.05  20
   7  -3  -1 5391.41  211.33  20
   1  -7  -3 5024.74  170.94  20
   3  -7  -1 5352.77  105.76   9
  -7   3  -1 5440.08   86.38   6
  -1   7  -3 4253.38  175.15  20
  -3  -1   7 5530.17  115.70   4
  -3   7  -1 4039.89  194.59  21
  -1   7   3 5335.66   90.48   7
   1  -7  -3 5635.74  111.49   5
   3  -1  -7 5544.56   98.89   8
   1   3  -7 4667.35  123.60  23
   3  -7   3 5231.83  117.34   9
  -3  -7  -3 4896.17  115.98  15
  -7  -3   3 5252.41   96.16  10
  -3  -3  -7 4947.71   96.05   8
  -3  -7  -3 5310.14  108.03  17
  -3  -7  -3 4965.50  103.70  19
   3  -3  -7 4919.17  100.26   8
  -3  -7  -3 4969.09  103.66  18
  -3   3   7 5458.88  205.76   1
   3  -7  -3 4944.69   91.12  18
   3  -7   3 3171.92  162.23   1
  -7  -3  -3 4753.80  102.45  15
  -3   3  -7 4899.93   78.78   8
  -3   7  -3 4668.83   96.06   6
  -3  -7   3 4959.79  117.53  15
  -7  -3  -3 4742.96   77.84  26
  -3  -3   7 4926.90  111.81   4
   3  -3   7 4459.96  188.24   1
  -3  -3  -7 4832.61  106.47  15
  -3   7   3 4862.39   97.98   7
   3  -3  -7 4891.73  103.10   5
  -3  -3   7 5449.40  140.43  22
  -7  -3  -3 4895.81   78.94  19
   7  -3   3 4903.69   98.22   9
   7  -3   3 5029.19  185.63  22
  -7   3   3 4887.49   91.41   7
  -3   7   3 3814.51  177.75  21
   3   3   7 5707.12  197.63  23
  -3   3  -7 4715.10   98.32   6
   7  -3  -3 3383.95  167.37   1
   3  -3  -7 4961.48  196.15   1
   3  -3   7 4989.40  135.26   4
  -3   3   7 4760.52  104.69  10
  -7   3   3 4936.52   91.72  13
  -7  -3   3 4958.72   94.33  13
  -7   3  -3 4871.48   94.35   6
   3   7   3 5463.32  208.64   1
  -7  -3  -3 6116.41  115.15  12
  -3  -7   3 4738.82  101.05  19
  -3   3  -7 5276.57   99.33   2
   3   3  -7 5278.34  102.55   2
  -3  -7   3 4939.04   89.07  12
  -3  -7  -3 5174.81  198.08   1
  -7   3   3 4217.61  143.30  23
  -7  -3   3 4856.76   79.08  26
   7   3  -3 4816.06   83.68  25
   3  -3   7 4984.63   74.49  25
  -7   3   3 4889.21  110.98  10
   3  -7  -3 4629.28  110.93   5
   3  -3   7 5407.72  142.74  22
   7  -3   3 4929.09  110.88  25
   3  -7   3 4610.68   80.05  17
   3  -7  -3 4904.78   99.37   9
  -7  -3   3 5099.47  106.47  19
   3  -7  -3 4789.03   97.51   3
  -7  -3  -3 4371.71   88.64  11
  -3  -3   7 5200.81  107.77  10
  -7  -3   3 3949.15  162.73  22
  -3   3   7 2689.85   66.32  23
   3   7  -3 4238.84  138.41  20
  -7   3  -3 6119.97  109.60  13
   7   3   3 4263.71  176.97   1
   3  -7  -3 4878.29   98.74  15
  -7   3  -3 3708.58  177.39  21
  -3   3  -7 5143.88  101.07  11
   7   3  -3 5468.11  195.59  21
  -3  -3  -7 5549.56  148.51  21
   7  -3  -3 5007.87  102.96   5
  -3  -7   3 4645.06   96.98   3
  -3  -3  -7 5013.35  191.12  20
   7  -3   3 3635.99  185.78  20
  -7  -3   3 4787.43  101.53  12
  -3  -3   7 4543.72   96.02  16
  -3   3   7 4830.33  112.81   4
   3  -7  -3 4342.46  179.07  20
   3  -7   3 5049.97  100.33   3
  -7  -3  -3 6050.16  110.01  13
  -3  -7  -3 4722.71   96.60   3
  -3   3  -7 4845.28  180.83  23
  -3  -3  -7 4411.00   96.73   2
  -3  -3   7 5923.12   88.61  19
   3  -3  -7 4530.84   98.26   2
  -5  -7   1 4481.75   87.30  12
  -1   5   7 4453.66  100.13   4
  -7   5  -1 3944.47  160.75  22
  -5  -7   1 4289.67  105.34  19
  -5  -7  -1 4253.82  103.39  19
   5  -1  -7 4373.04   86.83   2
  -7   5  -1 4545.70   94.33   6
  -1  -7   5 4343.11   86.91   3
  -5   1  -7 4442.38  109.87  11
  -1   5   7 4627.47   96.43  24
   5   1  -7 4569.47  100.04   8
  -5  -7  -1 4295.42   81.08  16
  -5  -1  -7 4398.32  112.13  15
   1  -5   7 3596.91  146.22   1
  -1  -5   7 4288.04  103.16  16
   1  -7  -5 4327.72   61.39  27
  -7  -1  -5 4180.28  104.45  11
  -5  -7   1 4297.10  107.45  15
  -7  -5   1 4244.38   89.40  15
   1  -7  -5 4518.43  102.71  15
  -1  -7  -5 4497.18  110.08  15
  -7  -5  -1 4296.78   99.47  15
  -7   5   1 4429.00   98.02   7
  -1  -5  -7 4451.29   99.71  15
  -7   5   1 3857.34  170.01  23
  -7  -1   5 5671.71  123.60  19
   7  -5   1 4631.47  108.65   5
  -7  -1  -5 4520.18  111.46  15
  -7   1   5 4414.46   81.04   7
   7  -1   5 4752.82  112.18  25
  -1  -7  -5 4061.95  102.79  14
   5   1   7 4072.43   96.64   4
   1   5  -7 4685.88  112.47   2
  -1   5  -7 3902.37  155.43  23
   7   1   5 4681.14  103.11  24
   7   5  -1 3888.49  168.22  23
   1  -5  -7 4302.20  100.88  14
  -1  -5  -7 4320.99  104.92  14
   7   5  -1 4738.34  190.59  22
  -7   1  -5 5867.91  123.62  13
  -7  -5  -1 4726.62   88.06  13
  -1   7   5 4384.05   98.96   7
  -5   1   7 4015.91   86.50   7
   1   7   5 4199.26   90.07   7
   5  -1  -7 4440.39   95.07   8
  -5  -1   7 4086.34   75.40   7
  -1  -7   5 4646.06  117.61   4
  -7   5  -1 4624.51   86.07  13
   1  -5   7 4935.78  140.88   4
   7   1  -5 4100.38   81.63   8
  -7   5   1 4719.28   83.71  13
  -7  -5   1 4553.13   84.04  13
  -7  -5  -1 4226.32   93.62  19
  -5  -1   7 4335.89  108.90   4
  -7  -5   1 4401.49   81.92  26
  -5  -1   7 4688.04   51.23  26
  -5  -7   1 4237.89  101.49   3
  -5  -7  -1 4374.49  110.37  15
   5   1   7 4080.33  104.11  24
  -5  -7  -1 4636.06   84.11  12
  -1   7  -5 4430.06   87.85   6
  -1   5  -7 4460.85   88.68   6
  -7  -5   1 4476.99  100.75  12
   1  -7   5 4505.35   88.03   3
  -7   1   5 4265.13   85.88  12
  -5   7   1 4518.82   99.57   7
   5  -7  -1 4471.66  112.97   9
  -7  -1   5 4280.08   96.99  12
   1  -7   5 2907.66  132.44   1
  -5  -1  -7 4350.72  110.02  11
   1   5   7 4719.60  108.69  24
  -1  -5   7 4558.96  121.39   4
  -5   7   1 4469.02   97.44   6
  -7  -5  -1 4683.81  101.01  12
  -1  -5  -7 3886.74  103.99   8
   1   5   7 4169.83  173.98  23
   5  -7   1 4488.41  118.86   5
  -5  -7   1 4356.31   97.78  16
  -7   1   5 4864.82  105.50  19
  -1  -7  -5 4316.11   86.21   3
  -1   5   7 3037.72  129.86  23
  -5   1   7 4284.20  108.79  10
  -5  -1   7 4423.10  108.76  10
   5  -7  -1 4191.68  115.86   5
   5  -1   7 4097.59  113.99   4
  -7  -1   5 4448.09  109.45  10
   1  -7   5 4388.26   61.74  27
   7  -1  -5 4163.35   76.20   8
  -1   5   7 4262.91   90.40  10
   1  -7  -5 4403.36   87.14   3
   7  -5  -1 4527.40  111.49   5
  -1  -7  -5 4425.09   92.07   5
  -1  -7  -5 3799.35  128.18  20
  -7   5   1 4250.00   85.72   6
   7  -5   1 4080.75  107.31   9
   5  -1   7 4848.89  181.75  22
   5   7   1 4476.04  174.14  22
   1   5   7 4083.71   84.13  10
  -5  -1   7 4865.56  182.30  22
  -1  -5   7 4646.54  101.09  10
   1  -7  -5 4281.35  101.44   5
  -5   7   1 4629.39  169.74  22
  -5   1  -7 4312.59   83.20   2
  -1  -5  -7 3705.32  142.84  21
  -7   1  -5 3178.43  143.49  21
   1  -5  -7 3635.04  165.71  21
   1  -5  -7 3821.05  101.37   8
  -1  -7   5 4281.26  111.33   9
   1  -5   7 4407.53   99.07   9
   1  -7   5 4615.69  115.57   9
  -1   7   5 3498.08  162.32  21
  -1  -5  -7 4225.55   80.46   5
  -1  -5  -7 3953.95  187.46  20
  -1  -7   5 4444.39   84.60  19
   7  -1   5 3430.94  182.11  20
   1  -5  -7 4215.48   93.80   5
  -5  -1  -7 4692.99  188.66  20
   1   7  -5 4195.56  184.22  20
   5   1  -7 4653.08   87.09   2
   7  -1  -5 4403.45  100.58   5
  -7   1  -5 3727.05  166.21  20
  -7  -1  -5 3749.14  143.62  20
   1  -7  -5 3833.63  152.09  20
  -5  -1   7 4643.93   90.34  19
  -5   7  -1 4555.62   98.88   7
  -5  -1  -7 4174.30   85.48   2
   3  -7  -5 3596.02  100.31   8
  -3  -5   7 4226.41   80.88  19
  -7  -5  -3 3739.40   83.20  19
  -7  -3   5 3992.38   69.01  26
  -5  -7  -3 3989.33   97.50  19
   7  -3  -5 3955.28   77.52   8
  -3  -7  -5 4157.99   95.49  19
  -7  -3   5 3966.17   99.23  10
   5  -7  -3 4083.68   79.79  18
  -3  -7  -5 4119.35  102.55  18
  -5  -7  -3 3809.12   89.83  17
  -5  -3   7 3931.15  102.73   4
   5   3   7 4407.74  114.56  24
  -3  -5   7 3803.97  104.33  16
  -5  -7   3 3919.37  106.27  16
  -5  -7   3 3910.25  104.74  19
  -3  -7   5 3964.04  115.60  16
   5   3  -7 4178.98  104.59   8
   3   5  -7 4531.58  110.13   2
  -3  -7  -5 3920.97  111.82  15
  -3  -7   5 3958.45   91.81  19
  -7  -5  -3 3915.99  106.07  15
   5  -7  -3 3705.94  101.35   9
  -3  -5  -7 3906.64  106.60  15
  -3  -7   5 4008.98   91.15   4
  -7   5   3 4076.57   98.03   7
  -7  -3  -5 3880.20  108.75  15
  -5  -3  -7 4034.65  112.69  15
  -5   7   3 4034.89   99.49   7
  -3   7   5 3977.72  100.03   7
  -7   3   5 4043.62   92.16   7
   5  -3  -7 3935.47   95.48   8
  -3   5  -7 3965.82   96.07   6
  -7  -5   3 3977.22  105.68  19
  -7  -3  -5 3941.28   81.22  14
   3  -5  -7 4033.56   94.04  14
  -3  -5  -7 3829.52  103.49  14
  -7   3  -5 5084.10  113.84  13
  -7  -3  -5 4951.56  114.65  13
  -5   3   7 3776.40   95.61   7
  -7   5  -3 3934.44   87.24  13
  -7  -5  -3 4152.78   90.47  13
   7  -3   5 4007.98  101.13  25
  -5   3  -7 3745.55  101.08   6
  -5  -7  -3 3918.21   97.13   3
  -3  -5  -7 3913.71  102.58   8
   5   3  -7 4361.50   91.52   2
  -7   5   3 4000.66   80.97  13
  -7  -5   3 3984.32   83.99  13
  -5  -7  -3 4307.52   85.23  12
  -3  -7   5 3882.54   86.90   3
   7   3   5 4337.34  110.37  24
  -3  -7  -5 3873.66   85.30   3
  -7   5  -3 4133.44   99.04   6
  -7   5   3 3025.34  137.93  23
  -3   7  -5 3996.96   95.74   6
  -5   3  -7 3999.07   85.02   2
  -7   5   3 4004.25   79.84   6
  -7   3  -5 3888.70   97.97   6
  -5   7  -3 3851.19   98.52   6
  -7  -5   3 3965.91  102.22  12
   5  -3   7 3989.98   83.75  25
  -7  -3   5 4722.24  117.20  19
  -5  -7   3 3956.64   93.90  12
  -7  -3   5 3971.36  103.83  12
  -5   3   7 3692.62  103.10  10
  -7  -3  -5 3724.54   99.00  11
  -3  -5   7 4285.65  113.13   4
  -5   7   3 4030.51   94.55   6
  -7  -5  -3 4523.23  104.08  12
  -5   3  -7 4134.93  106.52  11
   3  -7  -5 3826.58   84.10   9
  -7   3   5 3811.75  108.66  10
   3  -5  -7 3671.22  100.87   8
  -5  -7   3 3923.31  103.24  15
   3   5   7 4156.03  111.10  24
  -5  -3   7 4892.47  104.65  19
  -3   5   7 3918.12   95.02  10
  -5  -3   7 4180.55  103.10  10
  -3   5  -7 4208.35   94.05  11
  -3   7   5 3536.66   68.75  24
  -7  -3  -5 3961.88   68.40  26
  -7  -3   5 3362.99  147.66  22
   5  -7  -3 3710.65  111.88   5
  -5  -3   7 3582.19  132.68  22
   5  -3   7 4129.09  143.67  22
  -5  -3  -7 4081.28   82.49   8
   3   5   7 3419.93   81.63  10
   7  -5  -3 3936.24  110.14   5
   3  -7  -5 3655.97  105.18   5
  -3   5  -7 4329.94  103.76   2
   3  -5   7 4130.45   96.37   9
  -7  -3   5 3834.05   86.99   4
   3  -7   5 4225.75   89.23   3
   3  -7   5 4303.85  114.03   9
   3  -5  -7 3728.27  100.23   5
   7  -3  -5 3989.18  106.05   5
   3  -7  -5 4038.74   87.79   3
   5  -7   3 4108.31  113.68   9
   7  -3   5 4116.21   86.47   9
   5  -3  -7 3903.26  105.65   5
   7  -5   3 4042.65  107.87   9
  -3  -7  -5 3805.39  103.57  14
  -3  -5   7 4167.61   94.31  10
  -5  -5   7 3423.45   96.54   4
  -7  -5   5 3482.48  105.66  19
   7  -5  -5 3229.83   79.94   8
   5  -5  -7 3216.27   94.71   8
  -5  -7  -5 3397.19   96.24  18
  -5  -7  -5 3322.79   83.74  17
  -5  -5   7 3904.92  100.65  19
  -5  -7  -5 3043.34  108.89  15
  -7  -5  -5 3256.09  109.54  15
  -5  -5  -7 3199.48  110.05  15
  -5  -5  -7 3206.20   98.24  14
  -5   5   7 3092.43   97.36  10
  -7   5   5 3280.34   96.73   7
  -5   7   5 3347.36  101.43   7
  -7  -5  -5 3127.78   85.08  14
  -5   5  -7 3426.68   99.68  11
   5   5   7 3348.01  107.16  24
  -7   5   5 3048.38  100.85  10
  -5  -7   5 3401.57  101.05  12
  -5   5  -7 3169.52   97.58   6
  -7  -5  -5 3144.65   68.72  19
  -5  -7  -5 3280.63   85.69  19
  -5   7  -5 3303.78   98.57   6
   5  -5   7 3434.73   89.63   9
  -5   7   5 3085.68   85.84  10
   5  -7  -5 2959.85   90.07   9
  -5   5  -7 3219.32   84.79   2
   5   5  -7 3427.83   92.32   2
  -7   5   5 3216.48   71.97   6
   7   5   5 3313.32  108.22  24
  -5  -7   5 3254.79   98.48  19
  -5  -5   7 3456.61   88.56  10
   5  -7  -5 3437.57   85.01  18
  -7  -5   5 3158.63   79.70  10
  -5  -5  -7 3491.19   89.86  18
   7  -5  -5 3286.14  111.25   5
   5  -7   5 3445.95  106.47   9
  -5   7  -5 3110.96   84.03   2
   5   7  -5 3363.65   94.24   2
   7  -5   5 3353.34   95.70   9
   7   1  -7 3212.89   89.36   8
   1  -7  -7 2751.17  102.39   8
   7  -1  -7 3352.10   88.36   8
  -7  -7  -1 3245.88   99.29  19
  -7   1  -7 3204.34  108.24  11
  -7  -7   1 3209.28   96.02  15
   1  -7  -7 3206.09   89.10  15
  -7  -7  -1 3235.16  103.07  15
  -7   7   1 3267.31   98.43   7
  -7  -1   7 3165.73  106.50  10
   1  -7  -7 3083.73   98.66  14
  -1  -7   7 3375.13  124.48   4
   1  -7   7 3084.59  132.11   4
   7  -1  -7 3315.24  104.92   5
  -1   7  -7 3502.91   87.00   6
   1   7   7 3122.01   94.81  24
  -7   1   7 3209.46   78.57   7
  -7  -7  -1 3287.89   89.75  12
  -7  -7   1 3148.36   90.32  12
  -7   7  -1 3330.64   96.79   6
  -1  -7  -7 3116.00  102.03  14
  -7   1   7 3142.70   82.98  12
  -7  -1   7 3153.65   94.11  12
  -7   7   1 3192.64   90.55   6
  -7  -1   7 3278.94   53.84  26
  -7  -1  -7 3133.70   51.10  26
   7  -1   7 3563.25  100.63  25
   7  -7  -1 3182.02  113.20   5
  -7   7  -1 3326.64   98.38   7
  -1   7   7 3148.44   82.73  24
  -7  -1   7 3718.88   98.96  19
  -7  -1   7 3245.40  103.82   4
  -1   7   7 3196.94   99.82   7
  -1  -7  -7 3176.87   81.73   5
   1  -7   7 2907.66   84.30  10
   1  -7  -7 3076.50   93.50   5
   1  -7   7 3369.92  106.95   9
   1   7  -7 3188.59  107.70   2
  -1  -7  -7 3255.59  100.67  15
   7  -7   1 3258.61  112.14   9
   7  -3  -7 3044.85   85.16   8
  -3  -7   7 3073.16   79.73  19
  -7  -7  -3 2908.50   90.03  19
  -7  -7   3 3034.70  106.33  19
  -7  -3   7 2949.08   94.31   4
  -3  -7  -7 3108.57   99.37  18
  -7   3  -7 3189.09  108.69  11
   3  -7  -7 2743.84  100.18   8
   7  -3   7 2933.05   86.00  25
  -7  -7   3 2671.78   84.65  15
  -3  -7  -7 2954.52   78.56  19
   7   3  -7 3004.62   94.53   8
  -7  -3  -7 3007.76   87.58  14
  -3   7   7 3010.93  101.65   7
  -3   7  -7 2881.00   96.92   2
  -3  -7   7 3186.46  102.24   4
  -3   7  -7 3105.90   93.24   6
  -7  -7  -3 2961.84   87.23  12
  -7   7   3 3069.81   87.04   6
  -7  -7   3 3069.96   97.03  12
   3  -7  -7 3005.57   48.84  27
  -7  -3   7 2969.15  101.89  12
  -3  -7  -7 3051.63  107.78  15
   7   3   7 3056.67  101.07  24
   3   7   7 2927.01   99.16  24
  -7   3   7 2887.78   87.10   7
  -3  -7   7 2985.70  109.69  16
  -7   3   7 2676.92  103.48  10
  -7  -3   7 2970.01   99.67  10
  -3   7   7 3036.12   82.40  10
   7  -7  -3 2840.82  112.19   5
   3  -7  -7 2987.42   69.20   3
   3   7  -7 3038.08  104.40   2
   7  -7   3 3046.81  107.95   9
   3  -7  -7 2904.26  102.90   5
   3  -7   7 3087.52  103.02   9
  -7  -7  -3 2981.97  107.22  15
   7  -3  -7 2922.72  104.85   5
   7  -7  -3 2676.69  101.24   9
  -7  -5   7 3205.32  110.98  19
  -7  -5   7 2354.76   80.80  10
   7  -5  -7 2509.97   85.19   8
  -7  -5   7 2581.53   81.50   4
  -5   7  -7 2302.48   81.61   2
  -5  -7  -7 2457.82   72.80  17
  -5  -7  -7 2487.13   88.21  18
  -5  -7   7 2614.91   82.40   4
  -7  -7  -5 2456.05   75.99  19
   5  -7  -7 2172.07   91.24   8
  -5   7  -7 2526.21   89.94  11
   7   5   7 2422.40   95.84  24
  -7   5  -7 2083.14   61.80   2
  -5  -7  -7 2305.00  102.86  15
  -7   5   7 2418.69   90.22   7
  -5  -7  -7 2373.44   96.21  14
  -5   7   7 2378.80   93.78   7
  -7  -5  -7 2420.88   86.68  14
   7  -7  -5 2095.09   88.82   9
  -7   5   7 2182.07   94.18  10
  -7  -7   5 2306.35   64.99  13
  -5   7  -7 2485.58   94.02   6
  -5  -7   7 2489.94  105.25  16
  -7  -7   5 2473.36   97.05  12
  -5  -7   7 2542.39  101.62  12
  -5  -7  -7 2354.53   66.82  19
  -7   7   5 2383.07   76.25   6
  -7   5  -7 2561.33  101.25  11
   5   7  -7 2471.17   91.05   2
   5  -7   7 2549.44   94.66   9
  -5   7   7 2189.21   81.43  10
  -7   7  -5 2047.47   61.52   2
   7  -7  -5 2269.64  105.83   5
   7  -5  -7 2237.12  100.94   5
   5  -7  -7 2434.05   68.84   3
   7  -5   7 2483.14   79.38   9
  -5  -7   7 2686.92   89.68  19
   7  -7   5 2498.56   96.60   9
  -7  -7   5 2628.55  102.22  19
   5  -7  -7 2204.62   74.27   9
   7  -7  -7 1645.12   76.64   9
  -7  -7   7 2319.41  101.70  19
  -7  -7  -7 1777.90   69.49  18
  -7  -7  -7 1779.63   98.39  15
  -7   7  -7 1910.17   88.71  11
  -7   7  -7 1882.69   90.47   6
  -7  -7   7 1743.47   64.06  13
   7   7   7 1747.18   85.08  24
  -7   7  -7 1428.48   56.63   2
  -7  -7   7 1928.49   94.58  12
  -7   7   7 1819.83   66.11   6
   7  -7  -7 1976.87   69.68  18
   7  -7  -7 1637.47   96.96   5
   7  -7   7 1860.78   82.50   9
   0  -8   012259.32  167.74  17
   8   0   012475.12  182.28  25
   0   0  -812006.61  149.94   8
   0  -8   0 8919.75  266.70   1
   0   0   813209.27  309.44   1
   0  -8   012689.64  204.19  15
   0   0   812014.04  186.16   4
   0   0  -811533.34  155.52   2
  -8   0   010731.15  284.56  23
  -8   0   012481.96  158.25  13
   0  -8   011836.59  158.63   9
  -8   0   012620.86  156.12  12
   0  -8   011979.08  121.34  27
   0  -8   012002.65  170.96   3
   0   0   811515.52  173.16  10
  -8   0   0 8730.81  245.16  21
   0   0  -814668.40  367.09  21
   0  -8   0 8933.87  258.61  20
   0   8   0 8482.68  248.04  21
   8   0   010435.28  264.50  20
  -8   0   016081.70  176.83  19
  -8   2   0 1267.01   46.34  12
  -2  -8   0 1185.25   56.37  19
   0  -8   2 1211.85   52.55  19
   0  -2  -8 1205.98   49.53   8
  -8   2   0 1084.53   91.62  23
   8   0   2 1226.12   59.49  25
   8   0  -2  838.68   75.08   1
   2  -8   0 1276.87   52.57  17
   0  -2  -8 1318.09  102.20  21
   0   2  -8 1237.34   48.42   8
  -2  -8   0  809.79   74.73   1
  -2   0   8 1138.93   57.14   4
  -8   2   0 1155.27   44.12   7
  -2   0  -8 1150.71   48.83   2
   8   0   2  750.73   74.25  20
  -2   8   0 1157.67   43.24   7
  -8  -2   0 1390.81   54.85  19
  -8   0  -2 1332.40   54.83  13
   0  -8  -2 1255.58   62.09  15
   0  -2  -8 1181.16   43.08  15
  -8   0  -2 1130.01   45.35  15
   0   8   2 1177.10   39.93   7
  -8   0   2 1284.86   52.43  19
  -8   0  -2 1296.78   40.43  19
   0  -2   8 1264.68   89.49   1
  -8   2   0 1212.04   49.20  13
  -8  -2   0 1195.72   49.50  13
   0   2  -8 1181.28   51.41   2
  -8   0   2 1179.02   49.35  13
   0  -8  -2  947.18   95.55   1
  -8   0  -2 1302.88   53.75  12
   0   8   2  958.63   90.81   1
  -8  -2   0 1234.39   51.60  12
  -8   0   2 1171.60   47.37  12
  -2   0   8 1339.72   91.63   1
   0   8  -2 1159.55   44.66   6
   0   8   2  794.53   72.18  21
   0  -8   2 1182.97   51.62  17
   0  -8  -2 1147.81   36.69  27
  -2  -8   0 1198.00   54.81   3
   8   2   0 1261.55   56.46  25
  -8   0  -2 1097.06   49.37  11
   8   0   2  998.15   35.59  24
   2  -8   0  831.08   89.53  20
   8  -2   0 1046.21   54.31  25
   0  -8  -2 1214.21   55.76   5
   2   0  -8 1144.17   48.92   2
   0  -8   2 1106.68   36.70  27
   2   0   8 1120.93   55.97   4
   0  -2  -8 1065.84   49.90   2
  -2   8   0 1156.77   49.44   6
   0  -8   2 1147.13   52.79   3
   0  -8  -2 1202.54   53.12   3
   0  -2   8 1161.67   61.50   4
   2  -8   0  813.21   91.26   1
   0  -8  -2 1135.31   50.25  18
   0   2   8 1123.85   53.18  10
   0   2   8 1205.24   54.48   4
   0   8  -2  707.17   82.85  21
   0  -2   8 1194.52   57.05  10
   8   2   0 1283.86   93.69  23
   8   0  -2 1016.66   97.71  21
   2   8   0  786.31   67.92  21
  -2   8   0  652.28   77.56  21
  -2  -8   0 1087.42   45.96   9
  -8   2   0  866.11   87.25  21
  -8   0  -2  817.20   70.27  21
   0  -8   2 1151.98   55.87   9
  -2  -8   0  440.37   43.82  20
   0   2   8 1216.41  102.35   1
   2   0   8 1237.81  103.19   1
   0  -8  -2 1093.96   43.11   9
   0  -8   2  651.37   69.12   1
   0  -8   2  798.13   91.43  20
   2  -8   0 1200.04   54.27   3
   0   2   8 1198.39   68.94  23
   2  -8   0 1176.81   55.29   9
  -2   0  -8 1214.32   44.28   8
   8   2   0  764.37   68.56   1
   0  -8  -2  797.14   73.06  20
   8  -2   0 1134.85  101.61  20
   8   0  -2  998.64   84.97  20
  -8  -2  -212224.66  142.70  19
  -8  -2  -2 9601.94  132.34  11
   2  -8  -210342.11  112.96  27
   2   8  -210347.23  115.09   6
  -2  -2  -810881.96  144.40   8
   2  -2  -810428.32  155.20   2
   2  -2  -810499.34  154.18   8
  -2   2   810419.38  171.46   4
   2  -8   210533.51  115.08  27
   2  -8   210383.70  143.96  17
  -2  -8  -210837.82  169.45  17
  -2   2  -810986.80  136.66   8
   2   8   210400.88  287.33   1
  -2  -8   211172.78  194.71  15
   2  -8  -210985.70  180.29  15
  -2   8  -210879.62  130.87   7
   2   2   810065.51  150.59   4
  -2  -8   210759.46  168.00  19
   8   2   2 6901.73  219.98   1
   8  -2  -2 7408.84  247.80   1
  -8   2   210704.00  131.30   7
   8   2  -2 9615.27  259.85  21
  -2  -8  -2 9392.75  268.63   1
  -8  -2  -210143.72  141.73  15
  -2   2  -810993.84  155.53   2
  -2  -2  -810068.70  153.66   2
  -2   8   210424.74  136.68   7
  -2  -8  -210501.59  184.42  15
  -8  -2  -211842.75  164.79  13
   2  -2   810996.18  201.36   4
  -8   2  -211879.96  162.26  13
  -2   2   811515.43  295.95   1
   2  -2   810932.29  293.95   1
   2   2  -811134.29  158.51   2
  -2  -2  -810486.32  151.82  15
  -8   2   210521.49  145.94  13
  -8  -2   210569.39  149.73  13
  -8   2  -210106.04  126.85   6
   2  -8   2 6680.51  236.46   1
  -8  -2  -211669.64  167.27  12
  -8   2   210547.07  129.59  12
  -8  -2   210442.71  154.18  12
  -2  -2   812712.29  233.66   1
  -8   2   2 9294.79  233.92  23
  -2  -8  -210488.39  161.18   3
  -2   2  -811107.85  148.98  11
  -2   8  -210132.15  143.18   6
  -8  -2   212528.64  176.98  19
  -2  -8   210532.32  163.25   3
   8   2  -210380.89  151.64  25
   2  -8  -210162.49  144.31  18
   2  -8  -210302.11  176.22   5
  -2   2  -810572.97  253.41  23
   2   2   812065.97  262.45  23
   8   2   210281.06  140.38  24
  -2   2   810159.86  163.36  10
  -2  -2   810512.90  169.81  10
   8  -2   2 7999.23  268.27  20
  -2  -8   2 9985.10  159.08   9
   8  -2  -211321.37  147.51   5
  -2   8   2 7619.54  245.25  21
  -8   2  -2 7628.54  244.69  21
  -2  -2  -812729.99  290.65  21
   2  -8   210776.80  164.02   3
   2  -8  -210433.53  160.83   3
  -2  -2  -810988.69  314.81  20
   2  -8   2 8507.91  296.21  20
   2  -8  -2 8608.06  255.84  20
  -2  -8   2 5974.90  163.75   1
   2  -8  -210328.55  151.65   9
   2  -2  -812205.92  297.66   1
  -4   0  -8 9427.39  141.73   2
  -8  -4   0 9194.66  145.99  19
   0  -4  -8 8711.74  158.40   8
  -8  -4   0 9036.27  121.74  26
   0  -8   4 9689.90  139.14  19
  -4   0  -8 9723.77  117.49   8
  -8   4   0 9380.82  144.06   7
  -8   0   410279.29  158.26  19
   0  -8   4 9104.99  104.05  27
  -8   0  -4 8978.54  156.74  15
   0  -8  -4 9209.91  104.17  27
  -4  -8   0 9461.53  176.16  15
   0  -8  -4 9508.54  172.05  15
  -8  -4   0 8947.61  128.33  15
  -4   8   0 9560.76  143.03   7
   4   0  -8 9449.77  150.58   8
   0  -4  -8 9541.85  135.45  15
  -4   0  -8 9672.88  168.44  15
  -4  -8   0 9508.66  167.64  19
   0   8   4 9121.30  131.16   7
  -8   0   4 9255.86  166.12  10
  -8   0  -411422.56  177.79  13
   0  -8  -4 9063.57  150.97  18
  -8  -4   0 9976.16  142.77  13
  -8   4   0 9322.23  125.58   6
  -4  -8   0 9351.42  109.27  12
   4   0   8 8528.16  156.50   4
   0  -8   4 9139.72  146.07   3
  -4  -8   0 9315.72  161.54   3
   0   4   8 9412.71  150.63   4
  -8   0   4 9283.69  140.56  12
   0   8  -4 8885.35  123.88   6
   0   4   8 9666.81  149.47  24
   0  -4   8 8676.51  130.33  16
  -4   0  -8 9492.40  163.74  11
  -8   0  -4 9238.04  159.10  11
   0   4   8 8125.17  202.83  23
   0  -8  -4 9379.05  147.07   3
   8  -4   0 9644.58  152.36   5
   0   4  -8 9769.69  162.29   2
   0  -8  -4 9169.94  155.71   5
   4  -8   0 8894.49  178.44   5
   0  -4   8 9472.48  167.60  10
   0  -4  -8 9052.44  252.37  21
   0  -4  -8 9069.67  130.61   5
   4  -8   0 9483.97  168.83   9
   8   0  -4 9732.00  138.82   5
   0  -8  -4 7934.15  211.14  20
   8  -4   2  933.08   52.90   9
   8   2  -4  994.06   42.35   5
   4  -8  -2  985.47   43.68  18
  -8  -4  -2 1004.28   46.47  19
  -4  -2  -8  988.12   48.10   2
   4  -2  -8  966.50   47.98   2
  -2  -4  -8  978.98   51.13   8
  -8  -2   4 1032.30   38.52  26
  -4  -2  -8 1094.33   44.64   8
  -2   4   8 1049.50   56.21   4
  -4  -8   2  993.71   56.14  19
  -4   2   8  810.56   81.24   1
   2  -4  -8  947.31   51.53   8
  -4   2   8  979.01   58.37   4
  -4  -8  -2 1040.24   57.36  19
  -8  -4   2 1012.19   40.48  26
   2   4   8 1184.89   58.44  24
   4  -2  -8  959.36   48.73   8
   2   4   8  953.24   42.85   4
  -4   2  -8 1024.04   35.66   8
   2  -8  -4  963.83   48.34  18
   2  -4   8  840.34   80.97   1
  -4  -8  -2  955.73   51.68  17
  -2   4  -8 1038.10   45.11  11
  -4  -2   8 1077.83   59.05   4
  -2  -4   8  961.47   48.30  16
   4   2  -8 1013.21   53.10   8
  -4  -8  -2 1009.84   39.80  16
  -2   4  -8 1058.40   44.31   8
  -4  -8   2 1005.77   59.89  15
   2  -8  -4 1045.43   54.89  15
  -2  -8  -4 1094.39   57.40  19
  -4   8  -2  975.50   48.30   7
   2  -8  -4  949.27   33.93  27
  -2  -8  -4 1013.12   58.81  15
  -4  -8   2  984.27   55.02  16
   8   2   4  952.55   48.76  24
  -8  -4  -2  979.08   50.05  15
  -2  -4  -8  986.45   50.69  15
  -8   2   4 1029.13   43.14   7
  -4   8   2 1040.34   50.32   7
  -8  -2  -4 1043.71   55.04  15
  -4  -2  -8 1012.55   55.42  15
   2  -8   4  569.84   69.55   1
  -2   8   4  963.63   48.54   7
  -4   2  -8 1000.86   46.42   2
   4   2  -8 1123.91   50.27   2
  -4  -2  -8 1022.87   92.80  20
  -2  -8   4  938.40   46.25   4
  -8   2  -4 1236.85   58.61  13
  -8  -2  -4 1228.70   59.18  13
   2  -4   8 1067.73   70.97   4
   4  -2   8  987.84   64.32   4
  -8  -4  -2  970.53   47.86  13
  -2   4  -8 1018.50   49.96   6
   4  -8   2  974.09   41.49  17
  -8  -4   2  987.20   46.15  13
  -8  -2  -4  957.34   36.81  26
  -8  -2   4  967.98   49.20  13
  -8   4  -2 1026.61   48.33   6
  -8  -4  -2 1143.69   55.24  12
   8   4  -2 1134.80   47.27  25
  -4  -8   2  986.01   53.14   3
  -8  -2  -4  954.27   49.91  11
  -4  -8  -2 1009.70   52.84   3
  -8   2   4 1021.50   41.79  12
  -2   8  -4  995.79   48.76   6
  -4  -8   2 1009.50   41.38  12
  -8  -2   4 1005.15   51.37  12
  -8   4   2  954.84   38.89   6
  -2   4  -8 1069.13   53.53   2
  -4   8  -2 1048.69   53.33   6
   2   4  -8 1118.54   55.90   2
  -2  -8  -4  989.12   48.72   3
  -8  -4  -2  871.39   39.12  11
  -8   2   4 1032.59   57.70  10
  -4   2  -8 1056.55   54.73  11
   4   2   8 1068.72   58.17  24
  -8  -2   4  954.39   51.76  10
   8  -2   4 1072.78   57.91  25
  -2  -4   8 1115.55   63.81   4
  -8   2  -4  964.74   49.04   6
  -4   2   8  984.86   55.52  10
  -8   4   2  791.93   75.05  23
  -4  -2   8 1032.08   55.74  10
  -2   4   8 1005.43   51.39  10
   2  -8  -4  985.47   56.63   5
  -2  -4   8 1055.79   54.15  10
   4  -2   8 1004.65   77.60  22
   8  -4  -2 1024.50   53.57   5
  -4  -2   8  984.28   77.83  22
   2   4   8  934.83   48.22  10
   2  -8   4 1024.78   49.86   3
   2  -4   8  989.20   44.01   9
   2  -8  -4 1001.29   49.37   3
  -8   2  -4  645.50   72.65  21
   4   2   8  966.25   46.56   4
  -8   2   4 1009.94   49.02  13
  -8   4   2 1014.76   49.10   7
   2  -8   4 1050.09   60.82   9
   8  -2  -4 1012.66   50.72   5
  -2  -4  -8  812.88   86.88  20
  -8  -4  -2  962.24   39.58  26
   2  -8  -4  952.99   43.11   9
   2  -4  -8  972.77   48.87   5
   4  -8  -2 1006.65   53.95   9
  -4  -2   8 1150.69   42.32  19
   8  -2   4 1074.36   46.04   9
  -8  -2   4 1290.42   66.34  19
  -8  -4  -4 7706.76  110.38  19
  -4  -4  -8 7476.54  140.45   8
  -4  -8   4 7554.44  149.88  19
   4  -4  -8 7337.16  145.07   8
  -8  -4   4 8831.26  173.50  19
   4  -8  -4 7403.57  129.37  18
  -4  -4   8 9568.55  136.92  19
  -4  -8  -4 7730.29  146.72  17
  -4  -4   8 7679.93  161.39   4
  -4  -8  -4 7312.92  166.86  15
  -4  -4  -8 7214.89  156.01  15
  -8   4   4 7596.68  135.95   7
  -4   8   4 7790.24  149.80   7
  -8  -4   4 7505.94  107.84  26
   4  -4  -8 7886.96  131.49  14
  -4  -8  -4 7506.98  143.41  19
  -4  -4  -8 7476.40  153.06  14
  -8   4  -4 8387.98  148.94  13
  -8  -4  -4 8380.96  150.57  13
  -4   4   8 7004.19  145.39   7
  -8  -4  -4 7561.10  159.12  15
  -4   4  -8 7312.89  146.73   6
   4  -4   8 6730.01  195.86   4
   4  -4   8 6701.15   91.64  25
  -8   4  -4 7679.37  144.15   6
  -8   4   4 7372.98  130.33  13
  -8  -4   4 7587.89  136.29  13
  -4  -8   4 7330.80  141.25   3
  -4  -8  -4 7320.26  139.84   3
  -4   4  -8 7950.62  141.75   2
   4   4  -8 8307.51  149.57   2
  -4   8  -4 7394.98  142.80   6
  -8  -4  -4 7264.21  105.45  26
  -8  -4   4 7401.58  151.72  12
  -4  -8   4 7624.19  134.85  12
  -4   4  -8 8254.69  148.56  11
   8  -4   4 6894.12  141.91  25
   8   4   4 7827.22  155.77  24
  -4   4   8 7338.32  150.65  10
  -4  -4   8 8039.73  152.49  10
   4  -8  -4 6880.53  164.48   5
   8  -4  -4 7707.91  161.32   5
  -4  -8  -4 7431.31  148.89  18
   4  -8   4 7867.45  167.62   9
   4  -8   4 7640.59  141.65   3
   4  -4  -8 7510.44  156.82   5
   4  -8  -4 7378.02  140.33   3
   8  -4   4 7797.44  146.78   9
   4  -8  -4 7343.23  140.89   9
  -8  -6   0  808.38   53.19  19
  -6   0   8  722.95   54.43   4
   0  -8  -6  843.30   54.82  15
  -6   0  -8  832.28   40.82   2
   6   0  -8  960.61   44.34   2
   0  -8  -6  850.02   52.23  18
   8   0  -6  799.46   39.12   8
   0   6   8  847.45   47.98  24
  -6  -8   0  835.04   44.76  16
   0  -6   8  838.52   52.52  16
  -8  -6   0  775.10   46.35  15
  -6   8   0  902.95   53.48   7
   0  -6  -8  904.34   49.24  15
  -8   0  -6  837.00   57.33  15
   6   0  -8  873.26   49.31   8
  -6   0  -8  862.69   59.38  15
   0   6  -8  887.79   57.91   2
   0  -6  -8  793.17   51.81  14
   0  -6   8  847.97   67.97   4
   6   0   8  790.07   51.82   4
   0   8   6  857.77   49.85   7
  -6   0   8  804.37   41.18   7
   8   0   6  933.76   56.71  25
   0  -8   6  791.01   63.67   4
  -8   6   0  802.02   39.73  13
  -8  -6   0  737.86   38.91  13
   0   6  -8  861.34   43.28   6
   0   8  -6  910.51   44.25   6
  -8  -6   0  888.55   51.65  12
  -6  -8   0  791.07   41.77  12
  -8   6   0  831.07   48.03   6
  -6  -8   0  784.54   54.77  15
  -8   0   6  807.11   46.06  12
  -6   8   0  874.14   54.68   6
  -6   0  -8  870.86   57.01  11
   0  -8   6  849.37   42.43   3
   0  -8  -6  835.54   42.02   3
   6  -8   0  810.16   60.31   5
  -8   0   6  782.86   54.10  10
   8  -6   0  836.38   56.01   5
   0   6   8  818.22   42.33  10
  -8   0   6  928.09   55.60  19
   0  -8  -6  818.55   49.21   5
   0  -6   8  857.71   50.46  10
   0  -8   6  864.79   60.02   9
   0  -6  -8  806.44   43.87   5
   8   0  -6  887.42   51.29   5
   8  -6   0  834.15   58.58   9
  -2  -6  -8 6044.44  153.93   8
   2  -6  -8 5869.59  147.31   8
  -2  -8   6 6800.62  119.36  19
  -6  -8   2 6808.59  156.53  19
  -8  -2  -6 6546.85   88.34  26
  -6   2   8 6312.16  160.63  10
  -6  -2   8 6759.41  154.34   4
   8  -2  -6 7190.38  115.53   8
  -2  -6  -8 6989.27  108.79  19
   6  -2  -8 7195.91  140.34   8
  -2  -8  -6 6716.51  147.72  18
   2  -8  -6 6804.74  142.13  18
  -6   8   2 6656.09  135.33   6
   2   6  -8 7324.05  162.01   2
   8   2  -6 6410.37  122.68   8
   6   2  -8 7254.12  151.58   8
  -6  -8   2 6847.61  146.60  16
  -2  -6   8 6707.34  151.15  16
  -6   2  -8 7038.38  157.93  11
  -6  -8   2 6495.45  151.50  15
  -6   8  -2 6795.86  141.69   7
  -2  -8  -6 7213.94  143.27  19
  -8  -6   2 6115.76  116.99  15
   2  -8   6 6951.31   86.22  27
  -6   2  -8 6780.46  115.99   2
  -6  -8  -2 6572.45  159.52  15
   6   2  -8 7001.94  121.47   2
  -2  -8  -6 6652.33  157.83  15
  -8  -6  -2 6809.15  150.43  15
  -8   6   2 6813.38  142.04   7
  -2  -6  -8 6646.14  147.53  15
  -6   8   2 7051.59  145.76   7
  -2  -6   8 7472.01  176.14   4
  -2   6  -8 7097.42  154.87   2
  -8  -2  -6 6802.96  161.74  15
  -6  -2  -8 6898.88  166.13  15
  -8   2   6 7169.36  124.15   7
  -2  -8   6 6866.35  146.87   4
   2  -6  -8 6679.00  142.11  14
  -2  -6  -8 6383.25  149.93  14
  -2   8   6 6751.51  142.03   7
  -8  -2  -6 6904.63  111.43  14
  -8  -2   6 6504.54  149.18  10
  -6   2   8 6600.64  130.96   7
   2   8   6 6626.13  124.42   7
  -8   6  -2 5802.74  109.78  13
  -8  -6  -2 5894.94  111.81  13
  -2   6   8 6430.20  148.51   7
   6  -2   8 5959.39  165.48   4
  -8   6   2 6575.65  111.25  13
  -8  -6   2 6662.66  114.45  13
  -2   6  -8 6815.69  131.57   6
  -8  -2   6 6876.77   91.89  26
  -2   6   8 5397.03   99.79  24
  -6  -8  -2 6486.39  114.64  12
  -8  -6  -2 6726.61  140.10  12
  -2   8  -6 6986.13  131.78   6
  -8   6  -2 7023.70  140.21   6
  -2  -8   6 6737.56  120.01   3
  -6  -2   8 6692.00  154.88  10
  -2  -8  -6 6947.08  120.22   3
  -8  -6   2 6865.43  147.31  12
  -6  -8   2 6728.39  128.64  12
  -8   2   6 6450.18  111.03  12
  -8  -2   6 6591.99  143.95  12
  -8   6   2 6827.74  121.84   6
  -8  -6  -2 6626.96  131.57  19
   8  -2   6 6745.53  142.11  25
  -6   2   8 6434.23  112.46  12
  -8  -2  -6 6395.21  148.74  11
   2  -8  -6 6797.90   85.62  27
  -8   2  -6 6870.17  160.58  11
  -8   2   6 6125.27  156.31  10
   6  -2   8 7020.09  126.26  25
  -6  -8  -2 6833.07  146.33  19
   2   6   8 7043.15  145.18  24
   8   2   6 6876.21  140.36  24
   6   2   8 5966.55  138.81  24
   2  -8   6 7125.45  122.62   3
  -2   6   8 6832.45  129.88  10
   6  -8  -2 6137.55  166.08   5
   6  -2  -8 7103.07  159.93   5
   2  -8  -6 6993.15  122.59   3
   8  -6  -2 6686.94  164.57   5
  -2  -6   8 7535.52  137.66  10
  -2   8   6 5821.04  104.43  24
   2  -8  -6 5988.37  144.52   5
   2  -6   8 6881.65  141.42   9
   2  -8   6 7104.02  165.31   9
   2  -6  -8 6007.88  135.45   5
   8  -2  -6 7142.39  155.14   5
   6  -8   2 6882.30  163.38   9
   8  -6   2 6779.01  160.27   9
   6  -8  -2 6467.30  157.60   9
  -6  -2   8 7637.92  133.71  19
  -8  -2   6 7300.84  147.87  19
  -8  -4   6  911.75   65.41  19
  -4  -6   8  872.97   48.07  19
  -8  -6  -4  639.93   41.04  19
  -6  -8   4  673.34   54.99  19
   4  -6  -8  653.34   49.86   8
   8  -4  -6  760.88   40.62   8
  -6  -8  -4  715.70   48.54  19
   6  -4  -8  736.29   49.15   8
  -4  -8  -6  710.92   46.80  19
  -6  -4   8  696.20   49.59   4
   4  -8  -6  700.55   29.18  27
  -4  -8  -6  744.19   51.61  18
   4  -8  -6  698.26   46.06  18
  -6  -4  -8  782.05   41.48  18
  -6  -8  -4  673.81   42.80  17
  -4  -8  -6  808.25   51.82  17
  -4  -6   8  704.43   54.45  16
  -6  -8   4  727.30   55.72  16
  -4  -8   6  683.77   57.90  16
   8   4  -6  682.31   44.62   8
  -4  -6   8  767.44   52.98   4
   8  -4   6  635.14   42.74  25
   4   6   8  636.93   50.06  24
  -4  -8  -6  659.79   55.89  15
  -8  -6  -4  689.42   54.94  15
  -4  -6  -8  732.59   55.84  15
   8   4   6  694.45   51.78  24
  -8  -4  -6  707.03   56.22  15
  -8   6   4  709.35   50.47   7
  -6  -4  -8  696.37   56.76  15
  -6   8   4  726.41   51.96   7
  -8   4  -6  731.79   57.81  11
  -8   4   6  686.83   46.52   7
   4   6  -8  721.73   50.57   2
  -4   8   6  700.05   52.17   7
   4  -6  -8  737.79   45.94  14
  -8  -4  -6  708.47   41.03  14
  -4  -6  -8  715.43   53.07  14
  -6   4   8  673.84   48.17   7
  -6  -4  -8  733.11   50.12  14
  -6   4  -8  710.57   40.69   2
   6   4  -8  708.83   42.52   2
  -6   4  -8  693.88   55.30   6
  -4   6  -8  700.31   46.65   2
  -6   4   8  615.38   51.89  10
  -8   4  -6  704.90   54.52   6
  -4   6  -8  709.43   50.71   6
   6  -4   8  615.42   34.65  25
   4  -6   8  672.73   67.80   4
  -8   6   4  679.35   38.70  13
  -8  -6   4  663.58   39.47  13
  -8   6  -4  770.75   55.15   6
  -4   8  -6  747.63   52.03   6
  -6   8  -4  726.22   54.88   6
  -8  -6   4  720.31   52.89  12
  -6  -8   4  714.14   48.07  12
  -8  -4   6  700.21   53.11  12
  -8  -6   4  736.81   57.90  19
  -4  -8   6  719.56   50.21  12
  -8   6   4  712.48   41.46   6
  -6   8   4  735.73   49.20   6
   4  -8   6  721.38   29.14  27
  -4   6  -8  729.09   47.10  11
  -8   4   6  658.79   55.65  10
  -8  -4   6  697.03   47.44  10
  -4   6   8  691.69   47.60  10
   6   4   8  759.80   54.32  24
  -6  -4   8  744.23   51.81  10
  -4  -6   8  712.34   42.43  10
   6  -8  -4  618.73   57.10   5
   8  -6  -4  698.64   57.43   5
   4  -8  -6  588.69   52.37   5
   4  -8   6  696.28   40.93   3
   4  -8  -6  700.80   41.73   3
   4  -6   8  710.03   47.59   9
   4  -6  -8  603.09   49.68   5
   6   4  -8  714.37   52.14   8
   8  -4  -6  670.85   53.56   5
  -4   8  -6  638.69   45.39   2
   4   8  -6  736.82   52.71   2
   4  -8   6  731.31   57.21   9
   6  -4  -8  712.45   56.10   5
   6  -8   4  674.34   55.62   9
   8  -4   6  689.40   42.80   9
   8  -6   4  711.10   53.02   9
  -4  -8   6  684.19   49.22  19
   4  -8  -6  693.57   42.90   9
   6  -8  -4  675.15   51.97   9
  -6   4  -8  740.28   53.97  11
  -6  -4   8  969.04   59.08  19
  -6  -6   8 6164.61  142.94  19
  -6  -8   6 5064.65  138.67  19
   6  -6  -8 4558.99  128.44   8
  -6  -8  -6 4577.53  106.06  19
  -6  -8  -6 4501.88  121.56  18
  -6   6  -8 4789.88  132.00  11
  -6  -6   8 4928.38  122.47   4
  -6  -6  -8 4804.81  114.57  18
   6  -8  -6 4708.41  109.85  18
  -6  -8  -6 4450.70   99.05  17
   6   6   8 4576.64  132.15  24
  -6  -8  -6 4443.21  150.91  15
  -8  -6  -6 4494.13  148.11  15
  -6  -6  -8 4549.10  149.24  15
  -8  -6   6 5902.81  161.37  19
  -8   6   6 4637.27  128.60   7
  -6   8   6 4652.75  133.95   7
  -6   6   8 4505.50  130.84   7
  -6  -6  -8 4601.42  134.25  14
  -6   6  -8 4751.07  139.76   6
  -8   6   6 4399.42  102.42  13
  -8  -6   6 4610.36  111.01  13
  -6   6  -8 4005.34  103.07   2
  -6   8  -6 4724.46  135.08   6
   6   6  -8 4387.99  117.66   2
   6  -8  -6 4270.75  117.97   9
  -6  -8   6 4702.82  135.65  12
  -6  -6   8 4621.13  110.27  10
  -8   6  -6 4842.43  145.21  11
  -6   8   6 4417.01  112.80   6
  -6   6   8 4047.80  126.24  10
   6   8   6 4419.58  133.78  24
   8   6   6 4465.08  131.37  24
  -6   8  -6 3985.30  102.57   2
   6   8  -6 4374.94  118.49   2
   8  -6  -6 4473.73  152.12   5
   6  -6   8 4769.34  116.71   9
   6  -8   6 4741.57  138.83   9
   8  -6   6 4631.94  122.45   9
   6  -8   6 4792.46  110.50   3
   6  -8  -6 4557.84  111.86   3
  -8   6   6 4567.43   91.43   6
  -8  -8   0 5166.97  142.91  19
  -8  -8   0 4933.00  138.42  15
   0  -8  -8 4947.86  132.06  15
   0  -8  -8 4573.23  138.76  14
   0  -8   8 5217.18  179.21   4
   0   8   8 5037.45  135.16   7
  -8  -8   0 4736.54  121.36  12
  -8   8   0 5178.90  130.25   6
  -8   8   0 4989.48  135.97   7
  -8   0   8 5130.94  123.92  12
  -8   0  -8 5202.20  151.55  11
   8   0   8 5574.55  136.01  25
  -8   0   8 4344.44  147.48  10
   0   8   8 4548.36  108.19  24
   0   8  -8 4853.30  144.19   2
   0  -8  -8 4607.34  117.26   5
   8   0  -8 5402.83  126.39   8
   8  -8   0 5131.12  158.09   9
   8  -8   0 4750.07  155.40   5
   8   0  -8 5574.52  148.77   5
   8   2  -8  606.57   50.40   5
  -8  -8   2  604.68   57.55  19
  -8  -8  -2  546.24   50.09  19
   8  -2  -8  608.06   42.25   8
  -2  -8  -8  639.40   43.77  19
  -2  -8  -8  599.42   51.05  18
   8   2  -8  575.59   43.21   8
  -2  -8   8  564.20   54.33  16
  -8  -8   2  486.67   44.21  15
  -8  -8  -2  556.08   52.36  15
  -2  -8  -8  587.07   52.37  15
  -2  -8   8  610.75   54.27   4
  -8   2   8  557.83   40.94   7
  -2  -8  -8  515.76   49.68  14
  -8  -2  -8  596.17   41.20  14
  -2   8   8  599.37   51.99   7
   2   8   8  573.85   46.11   7
   2  -8   8  498.81   65.57   4
   8  -2   8  407.33   48.40   4
  -2   8  -8  579.28   44.80   6
  -8  -8  -2  501.13   41.74  12
   2   8   8  502.63   43.61  24
  -8   8  -2  570.78   51.54   6
  -8  -8   2  581.36   47.35  12
  -8   2   8  538.24   35.77  12
  -8  -2   8  556.55   48.37  12
  -8   8   2  591.83   49.09   6
  -8   2  -8  620.69   56.40  11
   8  -2   8  592.04   43.30  25
  -8   2   8  512.33   51.95  10
  -8  -2   8  516.63   49.76  10
   8  -8  -2  537.73   56.74   5
  -2   8  -8  556.03   50.53   2
   2   8  -8  658.41   55.56   2
   2  -8  -8  507.69   46.63   5
   2  -8   8  499.13   39.05  10
   2  -8   8  624.77   55.79   9
   8  -2  -8  595.61   53.34   5
   8  -8   2  578.55   55.97   9
  -8  -2   8  617.91   51.40  19
   8  -8  -2  562.74   55.71   9
  -8  -8   4 4538.54  145.67  19
  -8  -8  -4 4269.42  114.53  19
   8  -4  -8 4667.59  121.65   8
  -4  -8  -8 4387.76   98.27  19
  -4  -8  -8 4309.15  129.31  18
   8  -4   8 3510.84   91.85  25
  -4  -8  -8 4614.65  118.46  17
  -4  -8   8 4489.04  149.49  16
   8   4  -8 4084.95  124.77   8
  -4   8  -8 3954.10  121.95   2
  -4  -8   8 4489.24  123.12   4
   4   8  -8 4405.70  137.49   2
  -8  -8  -4 4251.45  146.26  15
  -4  -8  -8 4056.77  141.21  15
  -8   4   8 4172.41  117.91   7
  -8  -4   8 5007.60  130.64  19
  -4   8   8 4219.39  132.21   7
  -8  -4  -8 4300.63  115.03  14
  -8  -4   8 4022.72  123.17  10
   4   8   8 3956.35  104.24   7
  -4   8  -8 4353.21  124.79   6
  -8  -8   4 4189.81  129.40  12
  -8  -4   8 4351.64  141.46  12
  -8   8   4 4294.14  110.02   6
   4   8   8 3896.93  119.93  24
   8   4   8 4172.20  122.82  24
   8  -8  -4 4037.85  154.81   5
   4  -8  -8 3704.17  133.39   5
  -8   4  -8 4395.19  141.34  11
   4  -8   8 4400.84  132.97   9
   8  -4  -8 3987.43  142.48   5
  -8   4   8 3770.13  135.32  10
  -4  -8   8 4785.62  109.73  19
   8  -8   4 4132.14  138.67   9
   8  -8  -4 3812.46  132.45   9
  -6  -8   8  494.16   50.52  19
  -8  -8   6  489.38   59.91  19
   8  -6  -8  408.78   39.64   8
  -8  -8  -6  332.13   33.04  19
  -6  -8  -8  346.90   38.78  18
   6  -8  -8  355.77   36.78  18
   8   6  -8  319.28   39.51   8
  -8  -6   8  530.86   58.65  19
  -6  -8  -8  301.77   46.45  15
  -8   6   8  363.09   42.53   7
  -8   6   8  331.09   42.74  10
  -8   6  -8  415.22   52.36   6
  -6   8  -8  401.63   47.39   6
  -8   6  -8  406.42   48.00  11
  -8   6   8  336.91   32.86  13
  -8  -6   8  375.18   37.59  13
  -8  -8   6  370.59   44.09  12
  -6   8  -8  289.62   31.88   2
   6   8  -8  331.32   37.86   2
  -6  -8   8  410.21   47.71  12
  -6   8  -8  367.12   40.49  11
  -6   8   8  308.35   36.63   6
   8   8   6  270.69   40.36  24
   8   6   8  302.95   41.22  24
   8  -8  -6  311.20   49.95   5
   8  -6  -8  378.95   52.04   5
  -8   8   6  386.78   37.65   6
   6  -8   8  372.17   44.17   9
   8  -8   6  366.83   45.25   9
   8  -8   6  343.83   33.01   3
   8  -8  -6  326.76   44.12   9
  -1  -9   1 4229.81  112.51  19
  -1  -9  -1 4211.04  118.52  19
  -9  -1  -1 5279.05  107.39  19
  -1  -9   1 3919.10  107.59  17
   1  -9   1 3918.63  100.56  17
   1   1  -9 4112.72   98.80   8
   1  -9  -1 4243.22  110.57  17
   1  -1  -9 4023.11  104.18   2
  -1   9  -1 3865.37   92.61   6
  -1   1   9 3933.67  114.93   4
  -1  -9   1 4121.96  130.88  15
   1  -9  -1 4217.58  128.78  15
  -9   1   1 3803.85   75.69   7
  -1  -9  -1 4208.29  128.15  15
   1   1   9 3885.32  109.39   4
  -1   9  -1 4083.59   77.86   7
  -1  -1   9 3922.39  118.05   4
  -1   1  -9 4178.21   93.65   8
  -1   9   1 4184.66   81.41   7
   1  -1   9 4245.53  124.47   4
  -9  -1  -1 3872.68   79.19  15
   1   1  -9 4072.04  103.27   2
  -1  -1  -9 4182.86   94.14  15
   1  -9   1 4064.35   78.63  27
   1   9  -1 3993.74   85.98   6
  -9   1  -1 4282.39  104.21  13
  -9   1  -1 3463.95   67.53   6
  -9   1   1 4174.36  101.39  13
  -9   1  -1 4462.21  103.06  12
  -9  -1  -1 4210.03  104.54  12
  -9  -1   1 4116.39  101.10  12
  -1  -9   1 2350.30  127.98   1
   9   1   1 4280.97  114.97  25
  -9  -1   1 3737.30   73.12  11
   9  -1   1 4170.57  116.08  25
  -1  -9   1 4097.71  111.70   3
  -9   1   1 3829.78  164.72  23
   9   1  -1 4094.48  107.94  25
  -1   1   9 3854.53  111.34  10
   1  -9   1 4184.31  113.18   3
  -1  -1  -9 4248.34   97.99   8
   1   1   9 4022.07  114.72  10
  -1  -1   9 4593.13  172.35   1
  -1  -9   1 4010.35  105.68   9
  -1  -9  -1 3827.56   90.44   9
  -9   1  -1 2784.32  148.36  21
   1  -9   1 4140.14  112.24   9
   1  -9  -1 3928.84   99.78   9
   1  -9   1 2644.33  160.10  20
   1  -1  -9 4148.34  102.39   8
   1  -9  -1 2661.13  146.88  20
  -9   1  -1 4754.95   91.74  19
  -9   1   1 4783.46  104.30  19
  -9  -1  -1 3748.52   85.76  11
  -9  -1   1 5280.62  119.27  19
  -9  -3   1 4346.78  113.41  19
  -9  -3  -1 4204.88  101.44  19
   1  -3  -9 3380.05  102.97   2
  -1  -3  -9 3598.27   99.85   8
  -3  -9   1 3766.63  113.79  19
  -1  -9   3 3885.06  105.01  19
  -3  -1  -9 3842.10   88.29   8
   1  -9   3 3835.47   96.00  19
  -1  -9  -3 3440.62  101.30  18
   1  -9  -3 3545.22   99.31  18
  -1   3   9 3594.21  108.02   4
  -3   1   9 3641.02  116.11   4
   3  -1  -9 3784.01  102.53   8
  -3  -9  -1 3635.63  110.17  17
  -3  -1  -9 3634.98   99.68   2
   1   3   9 3620.06   99.17   4
   3  -9   1 3523.54   91.20  17
   3  -1  -9 3654.87  100.94   2
  -1  -9   3 3791.50  107.26   3
   3   1  -9 3693.48  101.39   8
  -1  -3   9 3414.36   78.02  16
  -1   3  -9 3940.33   94.66   8
   1   3  -9 3848.64  102.10   8
   9   1   3 4115.71  118.14  25
  -3  -9   1 3791.03  125.68  15
   1  -9  -3 3818.18  121.64  15
  -1  -9  -3 3569.25  119.38  15
  -3   9  -1 3621.27   88.28   7
  -9   3   1 3536.16   88.73   7
  -9   1   3 3672.52   74.62   7
  -3   1  -9 3910.34   83.85   8
   3   1   9 3484.64  103.96   4
  -3   1  -9 3550.07   96.27   2
  -9  -3  -1 3570.97   85.71  15
  -3   9   1 3851.90   92.73   7
   3   1  -9 3697.18   99.80   2
  -1  -3  -9 3703.10   92.71  15
  -9  -1  -3 3640.04   97.59  15
  -1   9   3 3782.15   88.48   7
  -3  -1  -9 3690.55  104.45  15
   1  -3   9 3657.54  127.44   4
  -9   1  -3 3447.28   94.79  15
   3  -1   9 3575.62  116.18   4
  -9   1  -3 3896.78  106.60  13
  -9   3  -1 3807.19   98.85  13
  -9  -3  -1 3755.59  100.02  13
  -9   3   1 3733.71   95.52  13
  -9  -3   1 3790.50   98.36  13
   1   3  -9 3706.21  105.53   2
  -9   1   3 3606.00   97.79  13
  -9   3  -1 3550.93   79.67   6
  -9   3   1 3277.20   78.20  12
  -9  -3   1 3642.74  102.39  12
  -9   1   3 3611.86   88.32  12
  -9  -1   3 3678.03   98.63  12
  -3  -9   1 3719.21  110.12   3
  -1   9  -3 3506.20   88.67   6
   1   9  -3 3522.69   79.15   6
  -3   9  -1 3566.21   98.27   6
   1  -9  -3 3615.26   73.21  27
  -9  -3  -1 3186.13   71.24  11
   1  -9   3 3659.37   74.30  27
   9   3  -1 4191.00  105.96  25
  -9  -3   1 3597.59   79.96  26
  -9  -1  -3 3375.25   94.32  11
   9   3   1 4001.49  111.74  25
  -3   9   1 3670.21   99.99   6
  -9   1  -3 3530.26  105.79  11
  -1  -9  -3 3759.88  105.72   3
   3  -9  -1 3460.75  117.84   5
   1  -9  -3 3366.81  108.71   5
   9   1   3 3175.83   74.89  24
   1  -9   3 3790.70  106.72   3
  -3   1   9 3514.04  110.35  10
   9  -3  -1 3995.99   96.66   5
  -3  -1   9 3637.32  113.35  10
   1  -9  -3 3714.44  105.26   3
  -1   3   9 3509.13  104.58  10
  -1  -3   9 3945.84  116.66  10
   1   3   9 3509.98  104.00  10
   1  -3   9 3676.37  115.92  10
  -3  -9   1 3429.43   96.37   9
  -1  -9   3 3665.21  112.83   9
   9  -1  -3 3931.30   89.73   5
   3  -9   1 3657.03  108.34   3
   1  -9  -3 3534.02   84.31   9
   3  -9   1 3813.91  114.52   9
   3  -9  -1 3730.60  107.89   9
  -9   1   3 4166.13  107.75  19
  -1  -3  -9 3526.89   79.83   5
  -9  -1  -3 4116.60   73.26  19
   1  -3  -9 3487.46   91.98   5
  -9  -3  -3 3926.95   87.02  19
  -3  -3  -9 3359.56   94.21   8
  -3  -9   3 3342.36  104.13  19
  -3   3   9 3361.51  112.42   4
  -3  -9  -3 3421.02  109.03  19
   3  -3  -9 3277.32  101.24   8
   3  -9  -3 3150.43   69.91  27
   3  -9   3 3365.87   72.54  27
   3  -9  -3 3197.09   91.12  18
  -3  -9  -3 3332.59  107.62  17
  -3   3  -9 3323.59   77.48   8
   3   3   9 3141.49   85.93   4
   3   3  -9 3546.04  105.53   8
  -3  -3   9 3389.91  116.34   4
   9  -3   3 3162.54  102.74  25
  -3  -9  -3 3141.43  115.47  15
  -9   3   3 3401.93   87.05   7
  -9  -3  -3 3338.72  100.04  15
  -3  -3  -9 3188.91  101.04  15
  -3   9   3 3439.82   93.94   7
   3  -3   9 3268.64  130.45   4
  -3   3  -9 3398.14   97.79   2
  -9   3  -3 3323.09   97.65  13
  -9  -3  -3 3441.54  101.31  13
   3   3  -9 3604.07  103.15   2
  -9  -3  -3 3109.93   72.02  26
  -9   3  -3 3132.78   87.12   6
  -9   3   3 3294.13   92.68  13
  -9  -3   3 3336.47   95.55  13
   9   3   3 3147.35   88.37  24
  -9  -3   3 3302.30  102.24  12
  -3  -9   3 3273.65  101.97   3
  -3  -9  -3 3314.44  101.55   3
  -3   9  -3 3202.41   94.03   6
  -3  -9   3 3168.63   73.36  12
  -3   3  -9 3466.79   95.21  11
  -9  -3  -3 2874.84   83.47  11
  -9  -3   3 3267.78   74.35  26
   3  -9  -3 3110.02  112.15   5
  -3   3   9 3132.81  103.42  10
  -3  -3   9 3534.71  110.77  10
   9  -3  -3 3514.10  101.27   5
   3   3   9 2970.66   99.39  10
   3  -9   3 3448.02  104.30   3
   3  -9  -3 3350.53  102.01   3
   3  -9  -3 3195.66   93.48   9
   3  -3  -9 3330.46  101.18   5
  -3  -3  -9 3026.88   97.39   2
   3  -3  -9 3046.96   98.35   2
   9  -3   3 3280.13   95.73   9
   5  -1  -9 3192.76  109.05   5
  -9  -5   1 3014.75   99.90  19
  -9  -5  -1 2966.87   92.55  19
  -1   5   9 2950.90   96.74   4
  -1  -5  -9 2764.44   98.80   8
   1   5   9 2937.82   84.64   4
  -1  -9   5 2906.97   83.05  19
  -5  -9   1 3065.31  107.45  19
  -5  -1  -9 3012.79   88.82   2
   5  -1  -9 3062.09   92.38   2
  -5  -1   9 3004.77  109.99   4
   1  -9  -5 2926.01   96.38  18
   5  -1  -9 3136.19   99.01   8
   5  -9   1 3012.64   80.06  17
   5   1  -9 3139.06   99.57   8
  -1  -5   9 2886.56   89.23  16
  -5  -9  -1 2969.60   80.94  16
  -5  -9   1 3112.62   98.04  16
   1  -5   9 2858.90   82.21  16
  -5   1  -9 3112.47   89.49   2
   5   1  -9 3299.96   94.23   2
  -1   5  -9 2815.90   86.57   8
  -9   5  -1 3017.20   95.74   7
  -5  -9   1 2877.02  111.07  15
   1  -9  -5 2692.14   99.99  15
  -5  -9  -1 2806.72  110.05  15
  -5   9  -1 2901.84   91.52   7
  -1  -9  -5 2859.97  108.57  15
  -9   5   1 3092.64   94.81   7
   1  -9  -5 3088.26   92.14   3
  -9  -5  -1 2983.99   90.42  15
  -5   9   1 2992.87   94.43   7
  -1  -5  -9 2961.96   91.95  15
  -9   1   5 3145.63   72.15   7
   5   1   9 2680.26   89.98   4
  -1  -5   9 3097.40  123.37   4
  -9  -1  -5 3057.14  105.94  15
  -5  -1  -9 3026.83  107.83  15
  -9   1  -5 3044.38  105.74  15
  -5   1  -9 3231.58  113.09  15
  -9  -1  -5 2878.41   99.98  11
  -1   9   5 3077.12   90.77   7
   5  -1   9 2822.90  110.64   4
   1   9   5 2982.56   80.12   7
   1  -5  -9 2874.53   98.12  14
  -1  -5  -9 2897.97  101.67  14
  -9   1  -5 3235.01  106.94  13
  -1  -9   5 2774.61   98.33   4
  -5   1   9 2787.39   86.15   7
  -9   5  -1 2845.07   84.27  13
  -9  -5  -1 2743.05   84.46  13
  -9   5   1 2925.81   83.35  13
  -9  -5   1 2996.15   86.11  13
  -9  -5   1 2912.54   74.13  26
  -5  -9   1 2894.55  103.32   3
  -9   1   5 2873.96   94.32  13
   5  -9  -1 2743.63  114.76   5
  -9   5  -1 3004.00   86.55   6
  -9  -5  -1 3004.98  100.09  12
  -9  -5   1 2927.88   98.74  12
  -1   9  -5 3024.99   84.82   6
  -9   5   1 3038.93   78.87   6
  -5  -9   1 2783.58   70.79  12
  -9   1   5 2899.18   82.90  12
  -9  -1   5 2845.17   91.68  12
   1   5  -9 3079.88  105.86   2
  -1  -9   5 2936.57   90.62   3
  -5   1  -9 3097.97  105.56  11
  -1  -9  -5 3064.16   91.18   3
  -9  -1  -5 2891.98   65.41  26
  -9   1  -5 3110.10  107.77  11
   9   5  -1 3281.85   88.34  25
   1  -9   5 3106.64   92.64   3
  -1  -9  -5 2649.10   86.49   5
   1   5   9 2963.85   91.82  24
   9  -1   5 3169.52  104.06  25
  -5   1   9 2965.72  107.67  10
  -5  -1   9 2981.32  108.37  10
   9  -5  -1 2983.16  101.89   5
   1  -9  -5 2731.59   99.42   5
  -1   5   9 2987.01   93.51  10
   1   5   9 2911.54   89.18  10
  -1  -5   9 3138.53  102.14  10
   1  -5   9 3027.89  106.78  10
   1  -9   5 3061.64  115.07   9
  -9  -1   5 2782.70  102.05  10
  -1  -5  -9 2895.19   76.73   5
   1  -9  -5 3030.53   64.62  27
   1  -5  -9 2789.81   88.20   5
   9  -1  -5 3122.86   95.36   5
   5  -9  -1 2887.24  104.98   9
   9   1  -5 3142.97   86.48   5
   5  -9   1 2947.79  100.57   3
  -9  -1   5 3185.48  103.15  19
   9  -5   1 2887.97  106.89   9
  -9  -5  -3 2733.08   80.51  19
  -3  -5  -9 2597.32   95.18   8
  -5  -9   3 2881.39  106.91  19
   3  -5  -9 2487.35   97.05   8
  -5  -9  -3 2784.84  101.17  19
  -3  -9  -5 2879.83   98.96  19
   5  -3  -9 2678.39   95.02   8
   5  -9  -3 2597.52   78.52  18
  -3  -9  -5 2680.87  100.33  18
   3  -9  -5 2578.55   88.02  18
  -5  -3   9 2811.05  105.96   4
  -5  -9  -3 2603.71   92.88  17
   9   3   5 2779.92   89.90  24
  -3  -9  -5 2943.04  104.08  17
  -3  -5   9 2683.42   94.17  16
  -3   5  -9 2493.48   71.72   8
   5   3  -9 2877.08  102.75   8
  -5  -9   3 2832.23  106.53  16
   9   3  -5 2316.94   68.59   8
  -5  -9   3 2481.55  101.07  15
  -3  -5   9 2931.60  111.24   4
  -3  -9  -5 2498.26  104.68  15
  -9   5   3 2834.15   92.36   7
  -9  -5  -3 2701.08   97.99  15
  -3  -5  -9 2654.73   98.72  15
  -3  -9   5 2787.06   92.59  19
  -9   3   5 2796.74   82.50   7
  -5   9   3 2798.47   95.91   7
  -9  -3  -5 2688.35  102.75  15
  -5  -3  -9 2587.05  103.19  15
  -5   3  -9 2789.56   86.38   2
  -3   9   5 2754.69   94.75   7
   5   3  -9 2953.71   91.72   2
   3  -5  -9 2800.33   92.13  14
  -9   3  -5 2857.65   99.31  13
  -9  -3  -5 2820.45   99.90  13
  -9   5  -3 2680.75   86.02  13
  -9  -5  -3 2532.35   85.13  13
   3  -5   9 2963.23  134.01   4
   5  -3   9 2483.20  118.98   4
  -5   3   9 2541.12   91.13   7
   3  -9   5 2747.42   63.20  27
  -9   3  -5 2615.70   93.67   6
  -9   5   3 2638.69   80.98  13
  -9  -5   3 2787.32   85.87  13
  -5  -9   3 2660.26   97.97   3
  -5  -9  -3 2697.57   97.38   3
  -9   3   5 2682.51   89.59  13
  -9  -3   5 2771.01   94.04  13
  -9   5  -3 2824.78   92.87   6
  -9  -5  -3 2663.67   96.64  12
  -3  -9   5 2689.42   88.81   3
  -3  -9  -5 2835.49   89.65   3
  -3   5  -9 2743.68   96.51   2
  -5   9   3 2768.45   94.31   6
  -3   9  -5 2870.39   93.07   6
   3   5  -9 2792.18  101.98   2
  -5   9  -3 2733.51   96.28   6
  -9   5   3 2628.54   67.38   6
  -5  -9   3 2685.59   79.68  12
  -9  -3   5 2710.87   98.36  12
  -3  -9   5 2628.32   81.86  12
  -9  -3  -5 2433.70   90.54  11
   3  -9  -5 2698.15   62.97  27
  -5   3  -9 2797.40   98.08  11
  -5  -3  -9 2783.21   79.73   8
  -9  -3   5 2745.23   64.94  26
   5  -3   9 2632.46   65.78  25
   9  -3   5 2537.89   91.62  25
   5   3   9 2392.05   91.41  24
  -5   3   9 2360.56   99.69  10
  -3   5   9 2681.06   93.85  10
  -5  -3   9 2762.56  101.75  10
   3  -9  -5 2368.88  102.14   5
  -3  -5   9 2949.35   99.05  10
   9  -5  -3 2686.70  103.26   5
   3   5   9 2457.16   85.09  10
   3  -9   5 2838.29   90.33   3
   3  -9  -5 2705.02   88.89   3
   3  -5   9 2688.37   80.31   9
   9  -3  -5 2712.79   98.24   5
   3   5   9 2786.67   95.25  24
   3  -9   5 2893.26  113.01   9
   3  -5  -9 2515.15   94.57   5
   5  -9   3 2805.81  109.63   9
   3  -9  -5 2628.20   77.07   9
   5  -9   3 2712.05   95.58   3
   9  -3   5 2679.73   78.24   9
   5  -9  -3 2584.94   94.91   9
   5  -9  -3 2580.60   93.89   3
   9  -5   3 2683.18  100.77   9
  -5  -3   9 3208.57   80.20  19
  -9  -3  -5 2602.36   62.43  26
  -9  -3   5 3548.12  121.95  19
  -9  -5   5 2829.24  115.19  19
  -5  -9   5 2237.96   93.49  19
  -5   9   5 2137.64   86.61   6
   5  -5  -9 2172.01   92.29   8
  -5  -9  -5 2408.19   90.81  19
   5  -9  -5 2128.34   77.06  18
  -5  -9  -5 2214.95   84.40  17
  -5  -5   9 2388.03   96.97   4
   5   5  -9 2254.98   98.46   8
  -5  -9  -5 2073.54  102.46  15
  -9  -5  -5 2247.32  101.17  15
  -5  -5  -9 2156.87   99.91  15
  -9   5   5 2343.22   87.64   7
  -5   9   5 2266.29   92.26   7
  -5  -5  -9 2248.02   96.11  14
  -5   5   9 2193.39   93.58   7
  -5   5  -9 2471.76   91.41  11
   5  -5   9 1965.92  121.92   4
  -5   5  -9 2238.12   82.95   2
   5   5  -9 2317.70   89.33   2
  -9   5  -5 2137.96   89.88   6
  -9   5   5 2125.15   76.68  13
  -9  -5   5 2322.73   84.19  13
  -5   9  -5 2348.75   94.17   6
  -5  -9   5 2218.54   83.84  12
   9   5   5 2103.73   86.87  24
  -5   5   9 2097.02   93.29  10
  -5  -5   9 2368.33   89.44  10
   5   5   9 1827.88   74.40  10
   9  -5  -5 2190.45  102.34   5
   5  -9   5 2269.91   84.06   3
   5  -9   5 2325.43  103.55   9
   5  -9  -5 2264.34   85.23   3
   9  -5   5 2175.98   83.86   9
   5  -9  -5 2057.19   80.18   9
  -5  -5   9 3141.90   90.89  19
  -1  -7  -9 2035.02   96.36   8
   7   1  -9 2456.61  104.52   5
  -9  -7   1 2219.82   97.37  19
  -9  -7  -1 2283.00   93.27  19
  -9  -1   7 2061.11   98.27  10
  -7  -1   9 2114.34   99.30   4
  -7  -9  -1 2239.75   98.03  19
  -7   1  -9 2261.29   69.48   2
   9  -1  -7 2364.64   72.58   8
   7  -1  -9 2420.59   90.66   8
   1  -9  -7 2145.88   90.64  18
   9   1  -7 2125.90   71.74   8
   7   1  -9 2344.67   91.42   8
  -1  -7   9 2185.02   93.75  16
   1  -7   9 2315.19   90.47  16
   9  -7  -1 2100.40  101.30   5
  -7  -9   1 2165.84   96.78  15
  -7   9  -1 2163.29   90.52   7
  -9  -7   1 2033.85   77.83  15
   1  -9  -7 1933.00   83.81  15
  -7  -9  -1 2055.23   99.36  15
  -1  -9  -7 2158.72   97.22  15
  -9  -7  -1 2270.22   93.33  15
  -7   9   1 2322.31   93.99   7
  -1  -7  -9 2182.21   88.35  15
   1  -9  -7 2240.79   71.11   3
  -9   1   7 2329.53   66.91   7
  -1  -7   9 2423.39  115.64   4
  -9  -1  -7 2341.11  105.93  15
  -7  -1  -9 2260.83  104.82  15
  -9   1  -7 2384.57  107.43  15
  -7   1  -9 2324.38  108.56  15
  -1  -9   7 2068.56   96.12   4
   1  -7  -9 2155.39   93.76  14
  -1  -7  -9 2111.07   95.49  14
  -7   1   9 2198.02   74.46   7
   1  -7   9 2213.55  125.16   4
  -1   9   7 2286.05   88.92   7
   7  -1   9 1799.87   91.58   4
   1   9   7 2309.30   84.46   7
  -9  -7  -1 1723.39   61.24  13
  -1   7   9 2266.61   96.49   7
   1  -9   7 1968.06  112.98   4
  -1   7   9 1812.50   64.56  24
  -9  -7   1 1764.86   61.25  13
  -1   7  -9 2305.97   79.38   6
   9  -1   7 1389.10   74.14   4
  -1   9  -7 2516.35   81.04   6
  -7  -9  -1 1918.14   68.64  12
  -9  -7  -1 2057.67   86.56  12
  -9  -7   1 2138.89   89.58  12
  -9   7  -1 2260.17   86.55   6
  -7  -9   1 1968.82   73.62  12
  -1  -9  -7 2253.70   70.12   3
  -9   7   1 2253.09   80.84   6
  -9   1   7 2132.32   75.05  12
  -7   9  -1 2171.13   91.85   6
  -9  -1   7 2146.91   85.51  12
  -7   1   9 2121.28   76.10  12
  -7   9   1 2252.49   91.33   6
  -7  -1   9 2211.31   89.17  12
  -7   1  -9 2305.93  101.14  11
   1   7  -9 2196.14   95.69   2
  -9  -1  -7 2158.38   48.16  26
   9   1   7 2531.57   97.67  25
   7  -1   9 2357.39   80.16  25
   7  -9  -1 2018.18  106.84   5
   9  -1   7 2283.01   88.44  25
   1   9   7 1864.80   75.27  24
  -1   9   7 1858.19   64.99  24
  -7  -1   9 2049.27   99.20  10
   1   7   9 2072.17   78.26  24
  -1  -9  -7 1926.93   72.96   5
  -1   7   9 2210.53   73.88  10
   1  -9  -7 1955.10   86.28   5
  -1  -7   9 2330.47   82.96  10
   1  -7   9 2249.84   89.44  10
   1  -7  -9 2074.68   83.49   5
   1  -9   7 2346.04  107.25   9
   1   9  -7 2108.23   98.22   2
   9  -1  -7 2488.19   99.39   5
   7  -9  -1 2129.76   99.18   9
  -9  -1   7 2438.25   97.62  19
   9   1  -7 2315.36   90.13   5
   9  -7   1 2249.07  105.56   9
   7  -1  -9 2495.62  105.20   5
   9  -7  -1 2102.10  102.58   9
   9  -7  -3 1777.97   94.87   9
   9   3  -7 1956.38   80.14   5
  -9  -7   3 2254.86  103.05  19
  -3  -9   7 2035.23   74.32  19
   3  -7  -9 1719.52   92.63   8
  -9  -7  -3 1980.21   80.14  19
  -7  -9   3 2073.68   99.71  19
  -7  -9  -3 2141.69   92.52  19
  -7  -3   9 2072.50   93.63   4
   7  -3  -9 2290.14   88.09   8
  -3  -9  -7 2072.40   81.06  19
  -3  -9  -7 1986.12   90.45  18
   3  -9  -7 1968.94   84.80  18
  -3  -7  -9 2063.44   90.20  18
  -3  -9  -7 2213.93   93.12  17
  -7  -9   3 2188.43   95.94  16
   9   3  -7 1832.80   73.67   8
   7   3  -9 2075.51   92.40   8
  -3  -7   9 2032.16   95.12  16
  -3  -9   7 2097.67  105.99  16
  -7   3  -9 1996.71   66.95   2
  -7  -9   3 1566.08   82.90  15
  -3   7  -9 1560.35   59.52   8
  -3  -7   9 2123.95   97.70   4
  -7  -9  -3 1959.26  101.90  15
  -3  -9  -7 1910.11   96.24  15
  -3  -9   7 2141.45   84.06   4
  -9  -7  -3 2045.84   95.83  15
  -9   7   3 2066.23   89.52   7
  -3  -7  -9 1939.00   94.29  15
  -7   9   3 2023.34   90.80   7
  -9  -3  -7 2009.56  100.07  15
  -7  -3  -9 1983.79  100.50  15
  -9   3   7 1989.27   74.83   7
   3  -7  -9 1881.23   82.71  14
  -3   9   7 2067.61   90.75   7
  -7   3   9 1962.92   79.69   7
  -7  -3  -9 2076.15   85.75  14
  -3   7   9 1957.15   92.82   7
   7  -3   9 1736.30  101.97   4
  -3   7  -9 2124.51   86.24   6
  -9  -7   3 1718.49   61.75  13
  -3   9  -7 2141.93   84.81   6
  -9   7  -3 2094.54   89.26   6
  -9  -7   3 1913.23   89.49  12
  -7  -9   3 1862.36   78.41  12
  -9   7   3 2007.64   72.20   6
  -9  -3   7 1974.40   90.82  12
  -7   3  -9 2073.13   95.46  11
  -7  -3   9 2060.19   95.64  12
  -3   7  -9 1880.45   86.36   2
   3   7  -9 1933.30   90.89   2
  -7   9   3 2051.58   84.08   6
   3  -9  -7 2044.21   49.34  27
  -9   3  -7 2160.07  101.91  11
  -9  -3   7 1864.21   87.54  10
   7  -3   9 1873.59   64.29  25
   9  -3   7 1897.06   76.94  25
   3   9   7 1860.01   81.76  24
  -7   3   9 1794.90   94.82  10
  -7  -3   9 1942.19   92.74  10
  -3   7   9 1911.41   76.54  10
   3   7   9 2033.03   83.13  24
   3  -9  -7 2005.75   69.73   3
   9   3   7 1963.26   81.11  24
   7  -9  -3 1774.16  102.34   5
   9  -7  -3 2037.68  104.47   5
   3  -9  -7 1732.37   91.06   5
  -9   3   7 1615.49   96.96  10
   3  -7   9 2133.93   87.40   9
   3  -7  -9 1826.59   89.07   5
  -3   9  -7 1862.55   86.68   2
   3   9  -7 2009.44   94.83   2
   3  -9   7 2073.14   99.38   9
   9  -3  -7 2040.72   96.02   5
   7  -3  -9 2093.48  101.80   5
   7  -9   3 2079.96  102.70   9
   9  -7   3 1903.59   93.23   9
   7  -9  -3 2000.69   96.63   9
  -7  -3   9 2384.79   85.07  19
  -9  -3   7 2339.54   96.51  19
   9  -7  -5 1484.20   86.01   9
  -9  -7   5 2148.19  108.26  19
  -5  -9   7 1888.29   82.53  19
  -9  -7  -5 1741.33   65.06  19
  -7  -9   5 1872.44   95.86  19
   5  -7  -9 1433.84   86.29   8
   7  -5  -9 1798.02   82.86   8
  -7  -9  -5 1763.06   77.21  19
  -5  -9  -7 1703.49   69.46  19
  -7  -5   9 1854.08   83.23   4
  -7   9   5 1676.20   74.98   6
  -5  -9  -7 1694.29   84.18  18
   5  -9  -7 1781.83   77.19  18
  -5  -7  -9 1816.56   81.17  18
  -5  -7   9 1851.52   82.41   4
  -5  -9  -7 1662.82   71.16  17
  -5  -9   7 1854.98  101.47  16
  -7   5  -9 1761.15   87.30  11
   7   5  -9 1565.76   86.14   8
   9   5  -7 1482.82   72.08   8
  -5  -9  -7 1563.92   94.06  15
  -9  -7  -5 1743.11   96.24  15
  -5  -7  -9 1572.50   90.52  15
  -9  -5  -7 1739.53   97.54  15
  -9   7   5 1713.20   83.82   7
  -7  -5  -9 1615.20   95.14  15
  -7   9   5 1848.19   89.88   7
  -7   5  -9 1412.13   58.04   2
  -5   9  -7 1468.44   68.67  11
  -9   5   7 1705.45   78.49   7
  -5   9   7 1686.51   87.12   7
  -7   5   9 1718.79   82.77   7
  -5  -7  -9 1665.83   88.62  14
  -7  -5  -9 1735.12   82.74  14
  -9   5  -7 1651.97   88.96   6
  -5   7  -9 1674.82   85.25   6
   5  -7   9 1462.50  109.10   4
   7  -5   9 1347.64  100.74   4
  -9  -7   5 1490.58   61.02  13
  -9   7  -5 1858.66   89.72   6
  -5   9  -7 1760.29   84.82   6
  -9   5   7 1563.91   70.60  13
  -9  -5   7 1621.45   76.02  13
   5  -9  -7 1711.23   47.09  27
  -7   9  -5 1754.30   88.48   6
  -5   7  -9 1497.24   71.41   2
   5   7  -9 1652.91   80.68   2
  -9  -7   5 1704.28   89.69  12
  -7  -9   5 1662.98   80.79  12
  -9  -5   7 1673.09   89.79  12
  -9   7   5 1551.29   59.45   6
  -5  -9   7 1720.75   84.43  12
  -7  -5   9 1665.35   92.34  12
  -5   7  -9 1730.24   73.48  11
  -7  -5   9 1616.47   76.79  10
  -7   5   9 1583.98   86.56  10
  -5   7   9 1537.14   75.07  10
   5   9   7 1430.38   76.71  24
   9   7   5 1527.46   78.48  24
   5   7   9 1580.80   78.18  24
   9   5   7 1698.55   79.51  24
   7   5   9 1664.21   80.55  24
  -5   9  -7 1464.16   70.99   2
   5   9  -7 1734.91   84.36   2
   7  -9  -5 1443.15   96.35   5
  -7   9  -5 1238.47   54.38   2
   9  -7  -5 1614.72   98.47   5
   5  -9  -7 1468.91   91.91   5
   5  -9  -7 1667.74   66.02   3
  -9   5  -7 1769.54   94.40  11
   5  -7  -9 1629.17   93.28   5
   9  -5  -7 1821.65  100.26   5
   5  -7   9 1696.28   75.32   9
   5  -9   7 1738.06   90.70   9
   7  -5  -9 1585.93   93.68   5
   7  -9   5 1758.76   92.91   9
   9  -7   5 1795.16   87.69   9
   7  -9   5 1766.91   76.63   3
   7  -9  -5 1658.67   76.47   3
   7  -9  -5 1603.07   82.95   9
  -7  -5   9 2033.29   79.51  19
  -9  -5   7 2401.34  111.10  19
   9  -7  -7 1075.10   72.23   9
  -7  -9   7 1642.98   89.63  19
   7  -7  -9 1296.31   74.07   8
   7   7  -9 1142.03   77.18   8
   9   7  -7 1125.24   66.46   8
  -7  -9  -7 1104.96   83.50  15
  -9  -7  -7 1192.83   85.65  15
  -7  -7  -9 1118.32   82.55  15
  -9   7   7 1295.21   74.07   7
  -7   9   7 1282.06   77.94   7
  -7   7   9 1244.72   76.89   7
  -7   7  -9  318.80   28.33   2
   7   7  -9 1034.36   55.62   2
  -7   7  -9 1205.07   78.79   6
   7  -7   9  948.07   91.06   4
  -7   9  -7 1315.38   78.93   6
  -9  -7   7  853.02   47.60  13
  -9  -7   7 1230.88   80.37  12
  -7  -9   7 1209.71   74.54  12
  -7   9  -7  302.31   27.48   2
   7   9  -7 1060.84   56.19   2
   7  -9  -7 1238.68   41.24  27
  -7   7  -9 1239.20   70.72  11
  -7   9   7 1212.32   62.27   6
  -9   7  -7 1277.11   81.08  11
  -7   9  -7 1179.03   69.03  11
  -7   7   9 1075.19   68.88  10
   7   9   7 1048.82   66.74  24
   9   7   7 1128.45   66.50  24
   7   7   9 1169.32   68.24  24
   9  -7  -7 1180.43   88.35   5
   7  -9  -7 1227.53   59.02   3
   7  -9   7 1211.72   75.09   9
   9  -7   7 1216.55   66.19   9
   7  -9  -7 1057.21   58.88   9
  -7  -7   9 1922.27   86.63  19
  -9  -7   7 1693.45   98.30  19
  -9  -9  -1 1587.02   87.57  19
   9  -1  -9 1680.73   72.60   8
  -1  -9  -9 1592.94   70.48  19
   9   1  -9 1594.71   74.65   8
   1  -9  -9 1622.70   85.33  18
  -1  -9   9 1558.09   89.59  16
   1  -9   9 1635.90   87.90  16
  -9  -9   1 1413.02   77.34  15
  -9  -9  -1 1460.26   84.48  15
  -9   9   1 1494.79   83.95   7
  -1  -9  -9 1447.61   80.34  15
  -1  -9   9 1699.03   97.19   4
   1  -9   9 1450.34   98.46   4
  -1   9   9 1553.81   80.97   7
  -9  -1  -9 1117.59   53.65  14
   1   9   9 1501.27   77.45   7
  -9  -1   9 1289.78   84.45  10
  -9  -9  -1 1222.62   66.00  12
  -9  -9   1 1317.79   71.18  12
  -9   9  -1 1592.17   81.00   6
  -9   9   1 1527.50   75.79   6
  -9   1   9 1442.49   64.52  12
  -9  -1   9 1429.93   74.17  12
  -9   1  -9 1556.72   90.62  11
   9   1   9 1658.55   76.67  25
   9  -1   9 1530.24   68.75  25
   1   9   9 1270.29   60.07  24
   1  -9  -9 1335.07   72.07   5
   1   9  -9 1212.57   79.16   2
   9  -1  -9 1666.55   91.63   5
   9  -9   1 1467.01   91.19   9
   9   1  -9 1738.92   88.16   5
   9   3  -9 1454.64   78.64   5
  -9  -9   3 1540.63   93.88  19
  -9  -9  -3 1481.42   78.71  19
   9  -3  -9 1754.34   74.84   8
  -3  -9  -9 1294.58   77.39  18
   3  -9  -9 1382.52   77.05  18
   9   3  -9 1318.49   69.04   8
  -3  -9   9 1531.49   91.48  16
  -3   9  -9  976.09   48.50   8
  -3  -9   9 1541.59   79.49   4
  -9  -9  -3 1325.42   85.96  15
  -3  -9  -9 1353.50   82.88  15
  -9   3   9 1356.72   64.14   7
  -9   3  -9 1558.28   97.05  15
  -3   9   9 1337.06   78.79   7
  -9  -3  -9  477.89   37.10  14
   3  -9   9 1171.75  102.62   4
   3   9   9 1387.85   67.26   7
   9  -3   9 1018.74   77.09   4
  -3   9  -9 1467.04   73.64   6
  -9   9  -3 1485.98   81.05   6
  -9  -9   3 1253.01   71.57  12
  -9   9   3 1384.71   68.89   6
  -9  -3   9 1443.04   82.02  12
  -9   3  -9 1467.14   87.17  11
  -3   9  -9 1110.66   69.64   2
   3   9  -9 1356.79   80.45   2
  -9   3   9 1115.79   80.45  10
  -9  -3   9 1375.29   79.74  10
   9  -3   9 1158.03   55.01  25
   3   9   9 1281.26   65.29  24
   9  -9  -3 1288.97   92.50   5
   3  -9  -9 1127.75   74.45   5
   3  -9   9 1497.87   83.31   9
   9  -3  -9 1369.03   86.70   5
   9  -9   3 1439.10   90.31   9
   9  -9  -3 1340.51   86.65   9
   0 -10   0  969.17   62.91  19
   0   0 -10  891.84   50.79   8
   0 -10   0  878.25   56.46  17
   0 -10   0  920.69   70.43  15
   0   0 -10  860.55   53.74   2
   0   0  10  808.97   58.47   4
   0   0 -10  912.86   44.48  15
 -10   0   0  856.93   52.40  13
 -10   0   0  818.00   50.12  12
   0 -10   0  823.20   40.07  27
   0  10   0  847.13   50.07   6
 -10   0   0  802.73   44.96  11
  10   0   0  864.83   55.75  25
   0 -10   0  897.08   58.60   3
   0   0  10  854.24   59.95  10
   0 -10   0  821.90   53.81   9
 -10   0   0  999.44   51.96  19
   0  -2 -10 6744.85  130.50   5
   0  -2 -10 6464.72  151.23   2
  -2 -10   0 7168.53  165.28  19
   0 -10   2 7187.63  152.61  19
   0  -2 -10 7029.35  148.04   8
  -2   0 -10 7199.56  134.41   8
   2 -10   0 6970.20  148.39  17
   0   2  10 6723.12  158.52   4
   0   2 -10 6928.28  140.33   8
   0 -10  -2 7136.76  163.78  17
  -2   0  10 6909.07  172.24   4
  -2   0 -10 6851.87  149.83   2
   2   0 -10 6985.21  152.84   2
  -2 -10   0 6506.20  181.34  15
   0 -10  -2 6438.43  178.66  15
  -2  10   0 7001.70  120.58   7
   2   0  10 7006.50  170.74   4
   0  -2  10 7336.30  187.28   4
 -10   0  -2 6743.04  122.82  15
   0   2 -10 6984.03  151.84   2
  -2   0 -10 7140.49  145.45  15
 -10   0  -2 6888.26  151.65  13
 -10   2   0 6871.56  144.36  13
 -10  -2   0 6844.32  147.09  13
 -10   0   2 6850.30  147.22  13
 -10   0  -2 6788.13  148.40  12
 -10   2   0 6453.26  129.40  12
 -10  -2   0 6725.66  149.65  12
 -10   0   2 6597.77  136.66  12
   0  10  -2 6970.08  127.42   6
  -2 -10   0 7176.70  166.93   3
  -2  10   0 6765.69  142.10   6
 -10   0  -2 6729.90  139.87  11
  10   0   2 7295.33  164.91  25
  10   2   0 7467.87  157.79  25
   0 -10   2 7154.59  163.31   3
   0 -10  -2 6983.97  160.06   3
  -2   0  10 6806.99  165.83  10
   0   2  10 6911.38  161.00  10
   0  -2  10 7382.78  176.90  10
   2 -10   0 7141.59  163.84   3
   2   0  10 6770.16  170.58  10
  -2 -10   0 6768.68  138.38   9
   2 -10   0 6755.59  113.13  27
   0 -10   2 6947.02  163.56   9
   0 -10  -2 6808.82  128.25   9
   2 -10   0 7013.84  157.58   9
 -10   0  -2 8134.52  121.61  19
 -10   0   2 8014.41  152.85  19
   2  10   0 7076.46  124.06   6
 -10  -2   0 8873.92  162.94  19
  -2  -2 -10  733.17   37.36   5
   2  -2 -10  777.51   50.55   5
  -2  -2 -10  720.25   50.41   2
   2  -2 -10  741.55   51.72   2
  -2 -10   2  897.84   61.50  19
  -2  -2 -10  825.90   48.85   8
   2 -10   2  839.62   53.52  19
  -2   2  10  765.63   56.49   4
   2 -10   2  760.06   49.36  17
  -2   2 -10  843.06   45.06   8
   2 -10  -2  875.61   58.95  17
   2   2  10  803.43   52.15   4
   2 -10  -2  719.43   61.23  15
  -2 -10  -2  737.78   62.38  15
 -10   2   2  753.04   41.75   7
 -10  -2  -2  774.73   45.15  15
  -2  10   2  805.39   45.86   7
  -2  -2 -10  729.27   48.14  15
   2  -2  10  778.99   63.47   4
  -2   2 -10  814.40   52.14   2
   2   2 -10  849.07   53.85   2
 -10   2  -2  704.00   41.66  15
 -10   2  -2  790.05   52.79  13
 -10  -2  -2  804.66   54.09  13
 -10   2  -2  707.70   41.22   6
 -10   2   2  817.38   51.55  13
 -10  -2   2  773.58   51.36  13
 -10  -2  -2  818.54   55.63  12
 -10   2   2  685.36   41.99  12
 -10  -2   2  773.04   51.89  12
  -2 -10   2  764.28   55.59   3
  -2  10  -2  779.70   51.23   6
  -2 -10  -2  813.61   57.01   3
   2  10  -2  830.77   42.49   6
   2 -10   2  809.45   39.78  27
   2 -10  -2  764.28   38.72  27
 -10  -2  -2  726.92   43.52  11
 -10  -2   2  799.71   40.06  26
 -10  -2  -2  804.12   39.96  26
  10   2   2  873.94   57.49  25
  -2  10   2  786.66   54.21   6
   2 -10  -2  695.90   57.93   5
  10  -2   2  732.75   53.89  25
  -2   2  10  844.82   58.91  10
  -2  -2  10  764.55   57.01  10
   2 -10   2  851.44   57.64   3
   2 -10  -2  865.07   57.83   3
   2   2  10  730.89   54.37  10
  -2 -10  -2  699.95   38.74   9
  -2 -10   2  761.23   56.53   9
   2 -10   2  847.04   62.06   9
   2 -10  -2  810.79   51.53   9
 -10  -2  -2 1035.47   52.61  19
 -10  -2   2 1078.07   67.60  19
 -10  -4   0  876.76   59.36  19
   0  -4 -10  702.03   52.91   8
  -4 -10   0  693.11   59.48  19
   0 -10   4  716.63   48.12  19
  -4   0 -10  789.59   39.91   8
   0   4  10  683.99   49.32   4
   0 -10  -4  727.69   53.17  18
   4   0 -10  731.22   51.37   8
  -4   0 -10  718.79   48.14   2
   4 -10   0  703.23   47.42  17
   4   0 -10  705.91   49.05   2
   0   4 -10  709.71   47.79   8
  -4 -10   0  686.47   49.01  16
 -10   4   0  661.51   47.86   7
  -4 -10   0  651.36   60.58  15
   0 -10  -4  609.57   55.81  15
  -4  10   0  717.27   48.74   7
   4   0  10  673.69   53.01   4
 -10   0  -4  705.39   50.49  15
   0  10   4  739.61   42.76   7
  -4   0 -10  733.41   54.92  15
 -10   0  -4  660.01   52.74  13
 -10   4   0  599.55   45.27  13
 -10  -4   0  675.99   49.00  13
   0   4 -10  709.87   53.23   2
 -10   0   4  690.90   50.77  13
 -10   4   0  678.63   39.40   6
  -4 -10   0  724.54   56.24   3
 -10   0   4  661.41   45.70  12
   0  10  -4  686.78   43.95   6
  -4  10   0  707.85   54.24   6
 -10   0  -4  731.05   54.24  11
 -10  -4   0  698.15   38.15  26
  10   4   0  735.11   47.81  25
   0 -10   4  728.19   53.43   3
  10   0   4  770.76   55.11  25
   0 -10  -4  748.32   52.81   3
   0 -10  -4  616.97   50.48   5
   0   4  10  687.84   50.35  10
   0  -4  10  742.90   57.63  10
   4 -10   0  702.69   53.56   3
   4 -10   0  717.87   57.40   9
   0  -4 -10  695.06   43.95   5
 -10  -4   2 6867.56  165.21  19
 -10  -4  -2 6697.42  136.52  19
  -4  -2 -10 5595.60  137.83   2
   4  -2 -10 5805.47  142.22   2
  -2  -4 -10 5577.65  141.02   8
  -4  -2 -10 6192.32  123.66   8
  -2   4  10 5811.15  152.62   4
  -2 -10   4 5701.29  136.34  19
  -4 -10   2 5691.31  153.65  19
   2  -4 -10 5630.80  149.81   8
  -4   2  10 5443.22  162.41   4
  -4 -10  -2 6058.24  161.75  19
   2 -10   4 5852.04  115.74  19
  -2 -10  -4 6021.11  159.29  19
   2   4  10 5451.15  121.45   4
   4  -2 -10 5895.68  145.45   8
  -4   2 -10 6158.07  105.48   8
   2 -10  -4 5355.97  135.14  18
   4 -10   2 5676.45  104.76  27
   4 -10   2 5297.00  116.60  17
  -4 -10  -2 5674.23  150.69  17
  -4  -2  10 5752.92  162.87   4
 -10  -2   4 5826.04  102.91  26
  -2 -10  -4 6028.16  159.43  17
   4   2 -10 5942.78  146.93   8
  -2   4 -10 5850.32  122.79   8
   2   4 -10 5780.45  146.23   8
  -4 -10  -2 5546.10  110.85  16
  -4 -10   2 5785.13  157.55  16
  -4 -10   2 5120.67  161.46  15
   2 -10  -4 4607.04  142.41  15
  -4  10  -2 5537.87  124.54   7
   4   2  10 5057.22  122.69   4
  -2 -10  -4 5051.27  162.86  15
  -2  -4  10 5917.79  171.43   4
 -10   4   2 5681.51  126.35   7
  -4   2 -10 5941.59  136.99   2
   4   2 -10 6076.48  143.74   2
 -10   2   4 5700.01  108.43   7
 -10  -4  -2 5604.83  129.70  15
  -4  10   2 5949.85  134.64   7
  -2  -4 -10 5566.70  136.54  15
 -10  -2  -4 5543.28  139.28  15
  -4  -2 -10 5686.60  150.07  15
  -2  10   4 5685.24  125.86   7
 -10   2  -4 5304.55  139.62  15
   2  -4  10 5717.33  182.60   4
   4  -2  10 5415.89  165.70   4
   2  -4 -10 5767.22  141.47  14
 -10   2  -4 5593.49  145.10  13
 -10  -2  -4 5516.64  144.91  13
 -10   4  -2 5246.76  129.14  13
 -10  -4  -2 5097.46  129.80  13
  -2   4 -10 5968.62  146.19   2
   2   4 -10 6076.21  153.00   2
 -10   4   2 5382.20  126.52  13
 -10  -4   2 5596.07  132.95  13
 -10   2   4 5430.46  134.32  13
 -10  -2   4 5651.49  139.96  13
 -10   4  -2 5615.67  120.57   6
  -4 -10   2 5888.48  155.20   3
 -10   2   4 5213.86  111.21  12
  -4 -10  -2 5647.85  150.96   3
 -10  -4   2 5471.61  143.60  12
 -10  -2   4 5455.74  138.74  12
  -2  10  -4 5473.33  126.16   6
  -2 -10   4 5598.20  142.42   3
  -2 -10  -4 5677.99  141.35   3
  -4  10  -2 5466.75  136.95   6
 -10  -2  -4 5087.21  129.26  11
   2 -10  -4 5600.30  100.46  27
   4 -10  -2 5502.13  103.63  27
   2 -10   4 5711.06  102.14  27
 -10  -4   2 5555.15  104.39  26
 -10  -4  -2 5591.04  104.29  26
 -10   2  -4 5952.75  156.45  11
  10   4   2 5987.42  144.97  25
  10   2   4 5950.62  151.60  25
  10  -2   4 5395.70  142.64  25
  10   4  -2 5558.83  115.34  25
  10   4   2 5032.12  111.91  24
  10   2   4 4835.74  103.80  24
   2 -10  -4 4833.38  146.92   5
  -4   2  10 5450.32  152.23  10
   2 -10   4 5906.54  145.98   3
  -4  -2  10 5853.07  159.25  10
  -2   4  10 5530.11  143.75  10
   2 -10  -4 5726.54  143.67   3
  10  -4  -2 5913.32  142.97   5
  -2  -4  10 6079.38  157.07  10
 -10  -2  -4 5531.03   98.75  26
   2   4  10 5552.31  141.82  10
   2  -4  10 5879.63  164.28  10
  -2 -10   4 5537.89  157.64   9
  10  -2  -4 6049.77  138.12   5
   4 -10   2 5656.38  149.73   3
   4 -10  -2 5607.64  148.45   3
   2 -10  -4 5216.97  109.93   9
   4 -10  -2 5726.54  145.11   9
   2  -4 -10 5491.56  133.85   5
  10  -2   4 5735.66  120.06   9
  10  -4   2 5537.57  146.61   9
   4  -2 -10 5742.20  150.73   5
 -10  -4  -4  721.89   42.12  19
  -4  -4 -10  553.81   43.57   8
  -4 -10   4  566.11   53.93  19
   4  -4 -10  607.46   51.80   8
  -4 -10  -4  706.89   60.00  19
   4 -10  -4  537.16   43.49  18
  -4 -10  -4  603.99   53.26  17
  -4  -4  10  642.25   57.71   4
   4   4 -10  625.64   52.91   8
  -4 -10   4  683.23   60.98  16
   4 -10   4  602.74   34.45  27
  -4 -10  -4  506.29   56.41  15
 -10   4   4  566.93   44.24   7
 -10  -4  -4  588.00   51.25  15
  -4  -4 -10  511.56   49.37  15
  -4  10   4  626.90   50.34   7
  -4   4 -10  576.74   45.61   2
   4  -4 -10  616.59   44.58  14
   4  -4  10  558.67   65.02   4
   4   4 -10  619.31   49.63   2
  -4  -4 -10  575.94   51.44  14
 -10   4  -4  476.47   44.44  13
 -10  -4  -4  547.30   47.81  13
  -4   4  10  597.37   51.22   7
 -10   4  -4  576.39   49.13   6
 -10   4   4  550.49   44.27  13
 -10  -4   4  571.63   46.78  13
  -4 -10   4  524.40   46.52   3
  -4 -10  -4  593.18   48.95   3
  -4  10  -4  597.99   52.47   6
 -10  -4   4  566.49   51.10  12
  -4 -10   4  531.38   36.24  12
  -4   4 -10  619.44   46.76  11
   4 -10  -4  537.99   33.25  27
 -10  -4   4  566.74   33.34  26
 -10  -4  -4  528.07   31.64  26
  10   4   4  541.27   42.38  24
   4 -10  -4  521.37   55.63   5
  -4   4  10  533.29   48.99  10
  -4  -4  10  616.53   51.42  10
  10  -4  -4  572.09   51.28   5
   4   4  10  543.97   46.04  10
   4 -10   4  609.23   49.43   3
   4 -10  -4  541.86   47.33   3
   4 -10   4  589.42   58.44   9
   4 -10  -4  541.93   44.95   9
   4  -4 -10  586.46   51.11   5
  10  -4   4  582.32   46.58   9
 -10  -4   4  780.77   67.30  19
   6   0 -10 5077.15  155.20   5
 -10  -6   0 4944.28  136.71  19
   0  -6 -10 4382.60  139.82   8
  -6   0 -10 4992.47  118.90   2
  -6   0  10 4413.66  150.78   4
   6   0 -10 5212.59  125.04   2
   0 -10  -6 4374.08  132.03  18
   6   0 -10 5092.30  139.76   8
   6 -10   0 4821.30  111.64  17
  -6 -10   0 4835.33  119.07  16
   0  -6  10 4586.67  117.28  16
   0   6 -10 4496.76  123.12   8
 -10   6   0 4591.29  129.96   7
  -6 -10   0 4295.74  146.94  15
   0 -10  -6 4160.92  138.54  15
 -10  -6   0 4404.33  113.86  15
  -6  10   0 4661.99  129.46   7
   6   0  10 3733.39  120.68   4
   0  -6  10 4994.64  178.03   4
 -10   0  -6 4909.19  149.22  15
  -6   0 -10 4830.56  153.95  15
   0  10   6 4757.23  116.73   7
   0  -6 -10 4518.64  138.52  14
   0 -10   6 4059.85  140.29   4
  -6   0  10 4706.43  110.67   7
 -10   6   0 3806.04  101.41  13
 -10  -6   0 3957.35  105.53  13
 -10   0   6 4457.18  132.23  13
   0  10  -6 5081.26  108.55   6
 -10   6   0 4582.32  110.51   6
 -10  -6   0 4499.49  135.80  12
   0   6 -10 4621.10  141.09   2
 -10   0   6 4365.61  117.87  12
   0 -10   6 4832.46  120.19   3
   0 -10  -6 4800.90  119.90   3
 -10   0  -6 4867.16  147.79  11
 -10   0  -6 4647.90   81.44  26
  10   6   0 4899.72  113.47  25
  10   0   6 5013.17  137.65  25
  10  -6   0 4593.36  136.72   5
   0 -10  -6 3908.89  118.87   5
   0   6  10 4651.45  119.98  10
   0  -6  10 4866.41  143.05  10
   0 -10   6 4903.66  159.76   9
   0  -6 -10 4351.49  109.74   5
  10   0  -6 5051.21  128.70   5
   6 -10   0 4627.26  148.88   9
   6 -10   0 4619.30  140.86   3
  10  -6   0 4493.86  149.60   9
  -2  -6 -10  506.22   49.86   8
   2 -10   6  535.76   41.94   3
 -10  -6  -2  547.25   47.92  19
   2  -6 -10  445.37   47.84   8
  -2 -10   6  511.63   42.19  19
  -6 -10   2  521.30   56.35  19
  -6 -10  -2  533.05   54.05  19
  -6  -2  10  543.71   52.30   4
  -2 -10  -6  568.91   52.83  19
   6  -2 -10  548.98   46.73   8
   2 -10  -6  486.11   46.10  18
   6   2 -10  523.67   48.85   8
  -2 -10  -6  591.46   55.73  17
  -2  -6  10  504.59   45.06  16
  -6   2 -10  490.12   38.81   2
  -6 -10   2  505.99   47.58  16
   6   2 -10  588.93   44.02   2
  -2   6 -10  448.56   36.70   8
  -2 -10   6  548.24   59.81  16
  -6 -10   2  399.18   49.79  15
   2   6 -10  456.84   45.28   8
   2 -10  -6  380.57   43.30  15
  -6 -10  -2  483.65   55.30  15
  -2 -10  -6  503.54   54.76  15
 -10   6   2  502.18   47.45   7
  -2  -6  10  600.53   57.67   4
 -10  -6  -2  482.39   46.50  15
  -6  10   2  452.52   47.13   7
  -2  -6 -10  463.90   44.53  15
 -10   2   6  520.28   37.21   7
 -10  -2  -6  533.71   52.39  15
  -6  -2 -10  514.21   53.22  15
 -10   2  -6  544.47   52.77  15
  -2  10   6  572.00   48.29   7
  -6   2 -10  563.50   56.62  15
   6  -2  10  430.47   50.69   4
   2  -6 -10  530.48   47.78  14
  -2  -6 -10  521.41   50.58  14
  -6   2  10  510.82   43.63   7
 -10   6  -2  397.65   37.21  13
 -10  -6  -2  425.89   39.35  13
  -2   6  10  539.98   52.31   7
 -10   6   2  404.92   36.11  13
 -10  -6   2  430.50   39.19  13
 -10   2   6  485.36   44.93  13
 -10  -2   6  523.84   47.93  13
 -10   6  -2  557.14   47.06   6
 -10  -6  -2  460.58   47.12  12
  -2   6 -10  545.87   48.91   2
  -2  10  -6  526.57   45.27   6
  -2 -10   6  521.94   42.11   3
   2   6 -10  536.27   49.72   2
  -2 -10  -6  489.54   40.44   3
 -10   6   2  516.53   39.07   6
 -10  -6   2  472.53   48.81  12
  -6 -10   2  484.91   35.90  12
 -10   2   6  440.08   34.30  12
 -10  -2   6  476.01   45.64  12
  -6  10  -2  518.74   53.02   6
  -6   2  10  516.37   37.01  12
  -2 -10   6  490.09   37.87  12
  -6   2 -10  586.50   53.07  11
 -10  -2  -6  483.96   49.31  11
 -10  -2   6  531.44   28.74  26
 -10  -2  -6  511.09   27.34  26
  10   6   2  526.19   43.01  25
   6  -2  10  525.43   33.10  25
  10  -2   6  520.46   45.96  25
   2 -10  -6  547.86   42.63   3
   6 -10  -2  412.66   54.54   5
  -6   2  10  511.66   53.69  10
  -6  -2  10  494.18   50.86  10
   2   6  10  545.18   45.88  24
  -2   6  10  478.50   41.51  10
  10  -6  -2  481.59   51.52   5
   2 -10  -6  443.59   48.35   5
  -6  10   2  510.24   51.24   6
  -2  -6  10  548.68   46.31  10
   2   6  10  509.69   39.77  10
   2  -6  10  453.47   48.59  10
   2 -10   6  550.90   58.32   9
   2  -6 -10  443.59   42.46   5
  10  -2  -6  518.45   47.19   5
   6 -10   2  498.13   47.56   3
   6 -10  -2  493.58   52.20   9
   6 -10  -2  523.31   48.38   3
  10   2  -6  494.84   37.95   5
   6  -2 -10  553.49   53.26   5
  10  -6   2  530.77   54.66   9
 -10  -2   6  585.83   55.61  19
 -10  -6   4 4943.57  159.51  19
 -10  -6  -4 4188.95  101.77  19
  -4 -10   6 4275.40  122.97  19
  -6 -10   4 4012.18  136.76  19
   4  -6 -10 3490.68  128.02   8
  -6 -10  -4 4000.75  126.60  19
   6  -4 -10 4265.48  135.77   8
  -4 -10  -6 4260.69  127.51  19
  -6  -4  10 4117.61  136.50   4
  -4 -10  -6 3753.02  129.29  18
   4 -10  -6 3655.70  112.27  18
  -4 -10  -6 3994.74  125.45  17
  -6 -10   4 4147.36  142.97  16
   6   4 -10 4165.09  138.91   8
  -4  -6  10 4333.10  143.88   4
  -4 -10   6 4067.28  151.85  16
   4   6 -10 3763.67  133.14   8
  -4 -10  -6 3464.07  141.40  15
 -10   6   4 3933.05  120.20   7
 -10  -6  -4 4061.95  137.52  15
  -6   4 -10 3779.45  105.26   2
  -4  -6 -10 3706.80  132.10  15
   6   4 -10 4014.82  115.16   2
 -10   4   6 4028.64  109.83   7
 -10  -4  -6 4002.12  143.13  15
  -6  10   4 4090.28  128.99   7
  -6  -4 -10 3896.63  140.53  15
  -4  10   6 3971.59  124.99   7
   4  -6 -10 3987.16  115.81  14
  -4  -6 -10 3865.72  134.54  14
  -6  -4 -10 3992.05  130.37  14
  -6   4  10 3701.59  118.19   7
   4  -6  10 3558.09  169.48   4
   6  -4  10 3271.22  154.44   4
 -10   6   4 3393.90   97.08  13
 -10  -6   4 3555.84  104.04  13
  -4   6 -10 3563.45  114.95   2
 -10   6  -4 3963.57  122.95   6
   4   6 -10 4042.44  130.18   2
 -10   4   6 3627.73  111.48  13
 -10  -4   6 3976.63  122.57  13
  -4  10  -6 4217.35  124.45   6
  -6  10  -4 3923.19  127.31   6
  -6 -10   4 3693.98  104.91  12
 -10  -4   6 3701.35  130.47  12
  -4 -10   6 3735.40  107.95  12
  -6   4 -10 4064.08  126.85  11
   4 -10   6 3970.73   78.17  27
   4 -10  -6 3913.39   79.43  27
  -6  10   4 3948.03  120.46   6
 -10   4  -6 3992.82  142.34  11
  10   6   4 3518.33  109.00  24
  -6   4  10 3640.96  134.05  10
  -4   6  10 3961.91  124.98  10
  10   4   6 3384.99  103.61  24
  -6  -4  10 4321.65  136.93  10
   4   6  10 3540.63  111.49  24
  -4  -6  10 4331.50  121.52  10
   4 -10  -6 3315.95  134.45   5
   4 -10   6 4084.09  111.95   3
   4 -10  -6 3953.68  112.86   3
  10  -6  -4 3836.98  143.52   5
   6   4  10 2912.69  111.84  10
  10  -4  -6 4002.80  140.28   5
   4  -6 -10 3408.47  124.95   5
   4 -10   6 4054.75  144.22   9
   6 -10   4 3981.51  123.92   3
  -4  10  -6 3256.77  109.65   2
   4  10  -6 3596.52  124.75   2
   6 -10   4 3913.45  141.23   9
   6 -10  -4 3727.67  122.07   3
  10  -6   4 3875.23  125.89   9
   6 -10  -4 3779.28  121.14   9
 -10  -4   6 5328.88  167.87  19
  -6 -10   6  393.26   50.27  19
   6  -6 -10  359.78   41.85   8
  -6 -10  -6  377.37   41.70  19
  -6  -6  10  379.51   41.84   4
   6 -10  -6  338.72   35.63  18
  -6  -6 -10  357.60   35.87  18
   6   6 -10  342.27   44.76   8
  10   6  -6  248.66   29.59   8
  -6 -10  -6  279.63   46.24  15
 -10  -6  -6  337.50   47.23  15
  -6  -6 -10  314.26   46.53  15
 -10   6   6  353.91   42.45   7
  -6  10   6  311.47   44.10   7
  -6   6 -10  300.86   32.47   2
   6   6 -10  313.76   36.13   2
  -6  -6 -10  337.28   42.92  14
  -6   6  10  314.91   41.69   7
   6  -6  10  312.38   54.83   4
 -10   6  -6  371.66   49.65   6
 -10   6   6  282.92   31.91  13
 -10  -6   6  314.55   35.25  13
  -6  10  -6  380.58   48.46   6
  -6 -10   6  326.68   37.82  12
  -6   6 -10  349.29   40.17  11
   6 -10   6  345.59   24.62  27
   6 -10  -6  332.92   25.21  27
  -6  10   6  312.48   42.42   6
 -10   6  -6  403.51   52.18  11
  -6   6  10  313.39   39.68  10
  -6  -6  10  321.60   34.47  10
  10   6   6  264.47   37.42  24
  -6  10  -6  243.37   31.51   2
   6  10  -6  279.63   36.35   2
  10  -6  -6  292.26   46.49   5
   6 -10   6  312.02   33.82   3
   6 -10  -6  326.53   35.58   3
   6 -10   6  351.11   49.81   9
  10  -6   6  329.00   38.88   9
   6 -10  -6  298.66   36.18   9
 -10  -6   6  491.23   63.03  19
 -10  -8   0  396.84   51.36  19
   8   0 -10  449.04   43.19   8
   0 -10  -8  354.34   43.74  18
   0  -8  10  378.37   42.23  16
   0 -10   8  383.95   51.79  16
   0   8 -10  309.82   35.92   8
  -8 -10   0  338.69   49.48  15
  -8  10   0  356.33   46.62   7
 -10  -8   0  336.26   39.72  15
   0 -10  -8  249.46   39.48  15
   0  -8  10  393.01   55.90   4
 -10   0  -8  416.95   52.43  15
  -8   0 -10  426.97   53.32  15
   0 -10   8  309.25   45.75   4
   0  -8 -10  303.28   41.58  14
   0  10   8  369.11   40.94   7
   0   8  10  365.02   45.11   7
 -10   0   8  353.47   43.65  13
  -8 -10   0  250.51   30.66  12
 -10  -8   0  318.86   40.74  12
 -10   8   0  377.42   44.69   6
 -10   0   8  351.16   37.56  12
  -8  10   0  375.73   48.71   6
  -8   0  10  340.30   37.80  12
   0   8 -10  275.38   41.59   2
   8   0  10  423.03   38.13  25
 -10   0   8  304.39   45.00  10
  -8   0  10  327.02   45.65  10
   0  10   8  234.98   28.71  24
   0 -10  -8  283.69   34.71   5
   0  -8 -10  298.75   33.15   5
   0  10  -8  291.71   44.50   2
  10   0  -8  395.78   43.49   5
  10  -8   0  336.12   48.36   9
   8   0 -10  384.72   47.37   5
  10   0   8  418.63   42.05  25
   8   2 -10 3621.15  135.55   5
 -10  -8  -2 3363.70  114.81  19
  -8 -10   2 3464.42  137.06  19
  -8 -10  -2 3481.09  125.82  19
   8  -2 -10 3592.02  116.70   8
  -2 -10  -8 3399.14  107.96  19
   2 -10  -8 3006.52  113.67  18
  -2  -8 -10 3196.35  119.81  18
  10   2  -8 2981.32   90.03   8
   8   2 -10 3546.58  119.62   8
  -2  -8  10 3364.89  122.23  16
  -2 -10   8 3390.56  140.43  16
   2  -8  10 3290.52  105.96  16
  -2   8 -10 2432.28   82.77   8
  -8 -10   2 2651.86  109.88  15
  -8 -10  -2 2934.80  129.82  15
  -2 -10  -8 3080.59  125.77  15
 -10   8   2 3252.21  118.89   7
 -10  -8  -2 3201.53  122.26  15
  -2  -8  10 3508.65  136.25   4
  -8  10   2 3152.68  118.87   7
  -2  -8 -10 2917.99  114.71  15
  -2 -10   8 3112.83  112.41   4
 -10   2   8 2386.33   73.53   7
 -10  -2  -8 3242.65  134.97  15
  -8  -2 -10 3254.52  137.01  15
 -10   2  -8 3466.70  140.06  15
  -8   2 -10 3606.79  144.94  15
  -8   2  10 3288.42   97.16   7
  -2  10   8 3297.89  115.77   7
   2  -8  10 3030.79  151.02   4
  -2  -8 -10 3178.17  128.00  14
   8  -2  10 2323.37  106.54   4
   2  10   8 3192.85   94.80   7
  -8  -2 -10 3515.61  110.14  14
  -2   8  10 3237.82  124.28   7
   2 -10   8 2702.64  143.51   4
   2   8  10 3033.04  110.33   7
  10  -2   8 1897.46   91.65   4
  -2  10  -8 3427.86  101.97   6
 -10   2   8 3028.93  112.47  13
 -10  -2   8 3446.19  123.53  13
 -10  -8  -2 2618.97  102.16  12
 -10   8  -2 3384.28  113.21   6
 -10   2  -8 3335.79  132.73  11
  -8 -10   2 2757.10   94.61  12
 -10  -8   2 2918.35  112.68  12
 -10   8   2 3096.31   94.95   6
  -2   8 -10 2707.58  110.95   2
 -10  -2   8 3127.84  113.45  12
   2   8 -10 2848.23  120.59   2
  -8  10   2 3146.90  109.28   6
  -8  -2  10 3065.43  114.77  12
  -8   2 -10 3413.00  129.71  11
  10   2   8 3513.72  115.30  25
 -10  -2   8 3042.31  122.31  10
  10  -2   8 3041.75   98.95  25
   8 -10  -2 2835.89  137.84   5
  -8   2  10 2856.63  125.83  10
  -8  -2  10 3101.90  125.77  10
  10  -8  -2 3179.09  136.74   5
   2  10   8 2679.95   89.46  24
   2   8  10 2686.35   89.05  24
   2 -10  -8 2687.68  110.80   5
  -2  10  -8 2851.86  114.58   2
   2  10  -8 2919.52  123.53   2
   2  -8  10 3198.12  106.25  10
   2  -8 -10 2903.01  109.85   5
   2 -10   8 3370.43  133.21   9
  10  -2  -8 3507.91  128.83   5
   8 -10   2 3162.60  132.61   9
   8  -2 -10 3454.24  137.81   5
  10  -8   2 3240.40  131.02   9
   8 -10  -2 3052.26  124.48   9
  10   2  -8 3426.23  111.60   5
   8 -10   2 3188.38  118.63   3
   8 -10  -2 3121.77  119.44   3
 -10  -8   4  399.25   60.63  19
 -10  -8  -4  290.28   37.72  19
  -8 -10   4  320.50   53.76  19
  -8 -10  -4  283.04   42.20  19
   8  -4 -10  329.92   38.58   8
  -4 -10  -8  297.53   34.77  19
  -4 -10  -8  292.27   42.42  18
   4 -10  -8  241.17   36.30  18
  -4  -8 -10  312.42   40.93  18
  -4 -10  -8  302.16   39.59  17
  10   4  -8  255.37   30.27   8
   8   4 -10  299.40   39.16   8
  -4  -8  10  310.05   40.17   4
  -4 -10   8  390.15   52.08  16
  -8 -10  -4  258.73   47.75  15
  -4 -10  -8  240.24   43.48  15
 -10  -8  -4  323.02   46.87  15
 -10   8   4  290.36   43.58   7
  -4  -8 -10  291.29   43.28  15
  -8  10   4  282.57   45.08   7
 -10  -4  -8  262.46   45.88  15
  -8  -4 -10  254.32   45.19  15
 -10   4   8  283.08   35.03   7
  -4  10   8  306.51   45.07   7
  -8   4  10  244.51   37.31   7
 -10   4  -8  338.15   49.77  15
  -8  -4 -10  309.32   37.40  14
  -4   8  10  312.42   44.76   7
   8  -4  10  216.77   46.83   4
   4   8  10  266.53   34.54   7
  10  -4   8  192.57   42.87   4
  -4  10  -8  301.03   42.70   6
   4 -10   8  166.92   47.43   4
 -10   8  -4  278.03   44.02   6
 -10   4   8  242.18   34.48  13
 -10  -4   8  277.82   38.39  13
  -4   8 -10  230.31   34.00   2
   4   8 -10  264.69   38.08   2
 -10  -8   4  257.61   40.34  12
  -8 -10   4  268.82   35.27  12
 -10   8   4  114.18   21.07   6
 -10  -4   8  288.68   42.36  12
  -8  -4  10  270.89   43.35  12
  -4 -10   8  269.46   37.52  12
  -8  10   4  336.17   43.32   6
  -8   4 -10  315.96   44.30  11
 -10   4  -8  297.79   48.23  11
  -8   4  10  238.40   41.28  10
  -4   8  10  251.34   30.64  10
  -4  10  -8  226.71   34.94   2
  -8  -4  10  290.02   38.83  10
  10   8   4  183.09   32.42  24
   4  10  -8  276.43   41.26   2
   4   8  10  276.39   37.97  24
   8 -10  -4  275.90   48.67   5
   4  10   8  191.93   33.08  24
  10  -8  -4  228.95   45.51   5
   4 -10  -8  242.83   42.90   5
   4  -8 -10  229.37   40.52   5
   4  -8  10  236.07   34.74  10
  10  -4  -8  281.43   44.93   5
   4 -10   8  292.77   45.80   9
   8  -4 -10  292.79   46.44   5
   8 -10   4  267.56   47.00   9
   8 -10   4  311.96   38.00   3
  10  -8   4  275.04   45.67   9
   8 -10  -4  272.95   35.96   3
   8 -10  -4  239.64   41.90   9
 -10  -4   8  349.59   48.20  19
  10   4  -8  272.67   33.54   5
  10  -8  -4  287.30   48.34   9
  -1 -11   1 2706.36  107.95  19
  -1 -11  -1 2604.51  110.52  19
   1 -11   1 2679.67  104.34  19
  -1  -1 -11 2678.82   92.81   8
   1  -1 -11 2580.96   97.37   8
   1  -1 -11 2352.20   97.66   2
  -1   1 -11 2656.13   90.64   8
   1 -11   1 2395.42   96.21  17
   1   1 -11 2590.04   95.71   8
  -1 -11  -1 2451.65  102.88  17
   1 -11  -1 2524.80  101.18  17
  -1   1  11 2459.54  106.70   4
   1   1  11 2474.56  104.59   4
  -1  -1  11 2524.45  113.55   4
  -1 -11  -1 2073.31  114.31  15
   1   1 -11 2462.12   97.45   2
   1  -1  11 2388.64  108.73   4
  -1  -1 -11 2646.24   86.27  15
  -1   1 -11 2596.03   86.91  15
 -11   1  -1 2350.58   95.37  13
 -11   1   1 2384.97   94.30  13
 -11   1  -1 2219.76   88.00  12
 -11  -1  -1 2287.00   94.03  12
 -11   1   1 2304.65   85.15  12
 -11  -1   1 2395.18   94.08  12
  -1  11  -1 2517.43   89.57   6
   1  11  -1 2467.96   81.23   6
 -11  -1  -1 2283.05   77.12  11
  -1 -11   1 2687.44  112.19   3
  -1  11   1 2682.21   96.39   6
 -11   1  -1 2537.97   92.35  11
   1  11   1 2555.82   89.50   6
  11   1   1 2375.70   96.45  25
  11  -1   1 2334.03   96.84  25
   1 -11   1 2531.49  106.58   3
  -1   1  11 2496.83  107.52  10
   1   1  11 2572.57  110.82  10
   1 -11   1 2523.52   75.50  27
  -1 -11   1 2440.40   98.42   9
  -1 -11  -1 2439.72   85.33   9
   1 -11   1 2491.83  104.21   9
   1 -11  -1 2451.48   92.92   9
 -11  -1  -1 2878.51   85.72  19
 -11  -1   1 2765.55   94.58  19
  11  -1   3 2233.06   80.12   9
   3  -1 -11 2366.47   99.02   5
  -1  -3 -11 2365.65   95.83   8
  -3 -11   1 2398.59  107.90  19
  -1 -11   3 2415.89   97.54  19
  -3  -1 -11 2577.04   84.64   8
  -3 -11  -1 2489.05  112.42  19
  -3  -1 -11 2190.29   92.59   2
   1  -3 -11 2218.16   95.29   8
   1 -11   3 2339.31   87.92  19
   3  -1 -11 2274.33   95.25   2
  -1   3  11 2355.45  100.38   4
  -3   1  11 2266.61  107.06   4
  -3   1 -11 2477.32   79.04   8
   3  -1 -11 2398.81   96.89   8
   1   3  11 2218.50   91.02   4
  -3 -11  -1 2288.65  102.70  17
   3 -11   1 2162.09   86.55  17
  -1   3 -11 2388.49   85.55   8
   3 -11  -1 2231.28   93.14  17
   1 -11  -3 2376.22  104.56  17
   1   3 -11 2315.10   91.80   8
  -3   1 -11 2363.16   95.16   2
   3   1 -11 2410.45   98.33   2
   1 -11  -3 1596.81  101.08  15
  -3 -11  -1 2086.23  112.56  15
  -1 -11  -3 1896.86  107.68  15
  -3  11  -1 2184.13   75.74   7
   3   1  11 2117.04   92.45   4
  -3  11   1 2270.09   79.58   7
   3  -1  11 2270.93  108.68   4
   1  -3  11 2408.00  119.46   4
  -1  11   3 2366.52   75.01   7
  -1  -3 -11 2316.93   83.09  15
 -11  -1  -3 2307.48   83.15  15
 -11   1  -3 2163.82   79.56  15
  -3  -1 -11 2277.16   93.77  15
   1   3 -11 2235.30   96.17   2
  -3   1 -11 2441.33   97.45  15
 -11   1  -3 1998.19   90.95  13
 -11   3  -1 1990.10   86.63  13
 -11  -3  -1 2024.34   89.21  13
 -11   3   1 2006.23   85.49  13
 -11  -3   1 2093.36   89.96  13
 -11   3  -1 1959.05   65.53   6
 -11   1   3 2168.42   91.35  13
 -11   3   1 1703.35   67.81  12
 -11  -3  -1 2088.37   94.64  12
 -11   1   3 2052.72   79.38  12
 -11  -3   1 2109.65   93.71  12
 -11  -1   3 2030.00   86.29  12
  -3 -11   1 2277.39  102.78   3
  -1  11  -3 2254.95   83.48   6
   1  11  -3 2336.82   74.20   6
  -3  11  -1 2306.80   92.54   6
   3 -11   1 2194.43   70.95  27
  -1 -11  -3 2262.25  100.37   3
 -11  -1  -3 2067.22   84.35  11
  -3  11   1 2334.45   94.81   6
 -11  -3   1 2223.13   68.48  26
 -11   1  -3 2294.00   96.78  11
  11   3   1 2486.96   95.96  25
  11   1   3 2445.79  100.17  25
   3  11   1 2354.50   79.31   6
  11  -1   3 2154.54   93.92  25
  11   3  -1 2204.29   83.27  25
   1 -11   3 2338.87  101.15   3
   1 -11  -3 2282.51  100.09   3
  -3   1  11 2132.42  102.53  10
  -1   3  11 2219.00   99.11  10
  -1  -3  11 2372.89  107.60  10
   1   3  11 2186.78   97.74  10
  -1 -11   3 2347.85  102.50   3
   3 -11   1 2194.41  100.52   3
   1  -3  11 2506.26  113.72  10
   3   1  11 2210.18  105.73  10
   3  -1  11 2319.70  111.32  10
  -1 -11   3 2302.15  106.46   9
   1 -11   3 2292.91  107.78   9
   1 -11  -3 2179.70   75.65   9
   3 -11   1 2214.62  102.40   9
   3 -11  -1 2249.93   95.13   9
  -1  -3 -11 2197.40   72.97   5
   1  -3 -11 2193.36   83.79   5
 -11  -1   3 2508.70   98.09  19
   1  -3 -11 2090.58   95.45   2
 -11  -3  -1 2958.69   99.58  19
 -11  -3   1 2923.09  110.26  19
  -3  -3 -11 2092.16   85.20   8
  -3   3  11 1969.42  100.08   4
  -3 -11   3 2207.77   98.33  19
  -3 -11  -3 2290.10  105.28  19
   3  -3 -11 2133.25   95.74   8
   3 -11   3 2140.33   80.06  19
   3 -11  -3 1992.61   66.02  27
  -3   3 -11 2161.22   72.70   8
   3   3  11 1867.44   76.50   4
  -3 -11  -3 2153.61  102.08  17
   3 -11  -3 2174.45   98.26  17
  -3  -3  11 2228.55  110.70   4
  -3 -11  -3 1893.10  105.14  15
 -11   3   3 1918.17   71.29   7
 -11  -3  -3 2096.56   84.57  15
  -3  11   3 2180.58   82.86   7
  -3   3 -11 2154.07   91.59   2
   3   3 -11 2145.51   94.48   2
  -3  -3 -11 1991.46   87.97  15
   3  -3  11 2006.36  112.49   4
 -11   3  -3 1996.90   76.42  15
 -11   3  -3 1866.67   86.92  13
 -11  -3  -3 1841.69   87.48  13
 -11   3  -3 1837.45   74.01   6
 -11   3   3 1930.30   84.57  13
 -11  -3   3 1958.08   87.60  13
 -11  -3   3 1805.33   88.03  12
  -3 -11   3 2142.30   98.78   3
  -3 -11  -3 2166.16   97.78   3
  -3  11  -3 2055.85   87.72   6
 -11  -3  -3 1771.18   72.89  11
   3 -11   3 2079.69   67.25  27
 -11  -3   3 2128.89   65.39  26
 -11  -3  -3 1963.65   62.04  26
  -3  11   3 2140.11   93.41   6
  11   3   3 2220.05   92.28  25
 -11   3  -3 2231.09  101.97  11
   3 -11  -3 1700.17   97.40   5
  -3   3  11 2016.55   97.58  10
  -3  -3  11 2162.53  102.70  10
   3 -11   3 2042.79   94.88   3
  11  -3  -3 1995.86   81.26   5
   3 -11  -3 2013.55   94.42   3
   3   3  11 1964.64   94.83  10
   3  -3  11 2054.79  105.37  10
   3 -11  -3 1980.65   81.45   9
   3  -3 -11 2046.89   91.63   5
  11  -3   3 2054.74   86.95   9
 -11  -3  -3 2732.94   82.44  19
 -11  -3   3 2780.53  116.99  19
 -11  -5   1 2367.95  104.21  19
 -11  -5  -1 2254.25   93.19  19
  -5  -1 -11 1916.97   83.70   2
   5  -1 -11 2008.81   87.55   2
  -1  -5 -11 1780.31   89.03   8
   1   5  11 1796.65   74.21   4
  -1 -11   5 2045.11   80.19  19
  -5 -11   1 1997.64  103.51  19
  -5   1  11 1875.07  102.01   4
  -5  -1  11 2000.42  104.84   4
  -1 -11  -5 2009.73  100.22  19
  -1 -11  -5 1663.06   87.50  18
   1 -11  -5 1778.25   87.23  18
   5  -1 -11 1945.94   90.60   8
  -5   1 -11 2047.46   84.58   2
   5   1 -11 1909.70   90.87   8
   5 -11   1 1788.09   73.14  17
   5   1 -11 2148.15   89.91   2
   5 -11  -1 1914.14   82.64  17
  -1 -11  -5 2031.76  101.48  17
  -1   5 -11 1737.25   75.83   8
   1   5 -11 1842.64   85.94   8
  -5 -11  -1 1946.41   73.55  16
  -5 -11   1 1973.18   89.01  16
  -5 -11   1 1658.76   99.88  15
   1 -11  -5 1380.58   87.59  15
  -5  11  -1 1789.47   80.51   7
 -11   5   1 1862.76   81.99   7
  -5 -11  -1 1589.09  102.37  15
  -1 -11  -5 1477.05   92.05  15
   5   1  11 1691.46   77.06   4
  -5  11   1 1880.28   83.63   7
 -11  -5  -1 1740.93   70.81  15
  -1  -5  11 1891.20  108.22   4
  -1  -5 -11 1862.08   77.30  15
   5  -1  11 1747.05   94.15   4
 -11  -1  -5 1919.61   89.69  15
  -1  11   5 1897.07   74.33   7
 -11   1  -5 1887.11   89.17  15
  -5  -1 -11 1953.10   97.90  15
  -5   1 -11 1993.14  100.40  15
   1  -5 -11 1940.62   91.57  14
  -1  -5 -11 1793.71   91.70  14
 -11   1  -5 1515.11   83.64  13
   1   5 -11 1905.87   93.52   2
  -5   1  11 1805.45   79.17   7
 -11   5  -1 1523.69   72.99  13
 -11  -5  -1 1605.52   76.20  13
  -5  -1  11 1861.93   71.74   7
 -11   5   1 1620.85   74.72  13
 -11  -5   1 1664.90   77.85  13
   1 -11   5 1405.13   82.87   4
 -11   1   5 1827.85   87.04  13
 -11   5  -1 1878.55   71.33   6
  -5 -11   1 1910.94   98.41   3
 -11  -5  -1 1612.57   86.55  12
  -1  11  -5 1954.70   76.62   6
 -11   1   5 1636.96   70.58  12
 -11  -1   5 1745.65   80.54  12
  -1 -11   5 1896.54   85.61   3
  -5  11  -1 1794.45   88.51   6
  -1 -11  -5 1903.23   85.10   3
 -11  -1  -5 1859.15   89.46  11
   5 -11   1 1829.23   65.36  27
 -11  -1   5 1973.13   59.79  26
 -11   1  -5 1932.39   96.34  11
 -11  -1  -5 1904.75   56.76  26
   1 -11   5 1994.52   88.59   3
 -11  -5   1 1811.53   62.27  26
  11   5   1 1927.96   78.35  25
   1 -11  -5 1982.42   88.18   3
  11   1   5 1872.96   87.02  25
  11  -1   5 1875.70   87.05  25
   1 -11  -5 1459.15   83.07   5
  11  -5  -1 1834.58   83.49   5
  -5   1  11 1724.08   95.04  10
  -5  -1  11 1804.96   96.51  10
  -1   5  11 1816.95   84.97  10
   1   5  11 1787.48   82.35  10
  -1  -5  11 2048.79   96.73  10
   1  -5  11 2057.12  101.32  10
  11  -1  -5 1975.01   79.95   5
   5 -11   1 1777.02   90.84   3
  -1  -5 -11 1730.71   65.11   5
   1  -5 -11 1779.51   77.67   5
   5 -11   1 1873.11   98.20   9
   5 -11  -1 1795.02   90.83   9
 -11  -1   5 2129.07   98.61  19
  11  -5   1 1825.85   96.78   9
 -11  -5  -3 2085.35   79.64  19
  -5  -3 -11 1846.55   69.75   8
  -3  -5 -11 1682.31   84.33   8
  -3 -11   5 1720.46   82.11  19
  -5 -11   3 1741.32   95.21  19
   3  -5 -11 1577.10   88.90   8
  -5 -11  -3 1741.53   94.91  19
  -3 -11  -5 1818.28   92.22  19
   5  -3 -11 1885.45   91.69   8
   3 -11  -5 1541.61   78.31  18
  -5  -3  11 1712.52   96.60   4
  -3   5 -11 1461.69   59.06   8
  -3 -11  -5 1751.94   91.47  17
   5   3 -11 1701.75   89.91   8
  -5 -11   3 1909.86   98.38  16
  -3  -5  11 1850.71  103.03   4
  -5   3 -11 1681.38   77.04   2
  -3 -11  -5 1475.41   97.20  15
   5   3 -11 1853.12   85.02   2
 -11   5   3 1651.09   76.79   7
 -11   3   5 1615.49   65.68   7
 -11  -5  -3 1671.98   81.51  15
  -5  11   3 1708.11   82.24   7
  -3  -5 -11 1596.23   83.07  15
 -11  -3  -5 1785.68   90.33  15
  -5  -3 -11 1670.37   89.89  15
  -3  11   5 1738.16   80.10   7
   5  -3  11 1532.13   97.79   4
   3  -5  11 1734.69  110.93   4
 -11   3  -5 1759.37   85.66  15
 -11   5  -3 1541.67   70.95  15
   3  -5 -11 1751.01   82.14  14
   5  -3 -11 1902.50   73.86  14
  -3   5 -11 1749.18   84.98   2
   3   5 -11 1801.49   90.02   2
 -11   3  -5 1390.95   78.88  13
 -11  -3  -5 1479.04   81.61  13
 -11   5  -3 1326.08   69.72  13
 -11  -5  -3 1399.97   73.16  13
  -5   3  11 1681.09   83.66   7
 -11   5   3 1433.29   70.44  13
 -11  -5   3 1551.44   75.51  13
 -11   5  -3 1643.14   75.40   6
 -11   3   5 1538.10   77.85  13
 -11  -3   5 1531.00   80.00  13
  -3 -11   5 1800.44   84.47   3
  -3 -11  -5 1767.47   82.32   3
  -3  11  -5 1662.88   79.47   6
 -11  -3   5 1550.44   84.26  12
  -5  11  -3 1674.22   85.91   6
   3 -11   5 1744.59   57.85  27
   3 -11  -5 1722.73   58.46  27
   5 -11   3 1679.87   60.98  27
   5 -11  -3 1639.10   60.74  27
 -11  -3   5 1735.43   54.93  26
 -11  -3  -5 1618.71   52.13  26
  11   5   3 1847.78   80.63  25
  11   3   5 1766.43   84.25  25
   3 -11  -5 1373.37   86.72   5
  -5   3  11 1572.41   89.22  10
   3 -11   5 1792.05   83.36   3
  -3   5  11 1637.08   84.05  10
  -5  -3  11 1854.76   95.71  10
   3 -11  -5 1729.34   82.56   3
  11  -5  -3 1650.02   87.69   5
  -3  -5  11 1873.97   90.80  10
   3   5  11 1550.04   75.74  10
  11  -3  -5 1719.03   84.75   5
   5   3  11 1521.23   85.48  10
   3  -5  11 1680.19   95.70  10
   5 -11   3 1651.95   85.88   3
   5 -11  -3 1748.55   89.36   3
   3 -11   5 1763.52  100.76   9
   3  -5 -11 1634.60   84.78   5
   5 -11  -3 1659.81   82.90   9
  11  -5   3 1764.44   90.14   9
 -11  -3   5 2059.43   96.76  19
  -5 -11   5 1508.60   84.50  19
   5  -5 -11 1449.80   83.86   8
  -5 -11  -5 1426.48   80.62  19
  -5  -5  11 1519.37   88.63   4
  -5 -11  -5 1398.27   77.39  17
   5   5 -11 1462.73   85.29   8
  -5 -11   5 1440.42   92.09  16
  -5 -11  -5 1262.31   90.80  15
 -11   5   5 1405.25   69.92   7
 -11  -5  -5 1404.16   83.45  15
  -5  -5 -11 1389.25   85.76  15
  -5  11   5 1450.01   79.21   7
  -5   5 -11 1289.86   68.74   2
   5   5 -11 1372.82   75.35   2
 -11   5  -5 1363.75   77.43  15
   5  -5  11 1141.60   92.18   4
  -5  -5 -11 1454.41   84.80  14
  -5   5  11 1470.46   83.24   7
 -11   5  -5 1336.95   77.76   6
 -11   5   5 1219.52   65.14  13
 -11  -5   5 1369.55   72.59  13
  -5  11  -5 1447.59   80.34   6
 -11  -5   5 1254.07   79.18  12
  -5 -11   5 1222.41   56.88  12
  -5   5 -11 1510.20   71.82  11
   5 -11   5 1451.14   52.87  27
   5 -11  -5 1387.15   52.73  27
  -5  11   5 1433.84   78.21   6
  11   5   5 1396.06   71.86  25
  -5   5  11 1344.29   80.44  10
   5 -11  -5 1207.24   87.40   5
  -5  -5  11 1498.10   79.18  10
  11  -5  -5 1407.31   84.77   5
   5 -11   5 1432.74   74.25   3
   5 -11  -5 1347.89   74.10   3
   5   5  11 1265.96   68.87  10
   5 -11   5 1519.99   94.33   9
   5  -5 -11 1445.10   86.95   5
   5 -11  -5 1240.56   63.44   9
  11  -5   5 1434.48   71.73   9
  -5  11  -5 1065.76   62.62   2
   5  11  -5 1294.21   73.96   2
 -11  -5   5 2110.59  112.05  19
   7   1 -11 1529.33   93.12   5
 -11  -7   1 1793.78   97.75  19
 -11  -7  -1 1677.39   84.35  19
  -7   1 -11 1475.89   63.58   2
  -7  -1  11 1433.97   89.85   4
  -7 -11   1 1484.89   92.81  19
  -7 -11  -1 1483.85   91.23  19
  -1 -11  -7 1506.59   84.30  19
   7  -1 -11 1636.01   84.07   8
   1 -11  -7 1301.18   78.94  18
   7   1 -11 1544.61   84.33   8
   7 -11  -1 1390.85   64.27  17
  -1 -11  -7 1588.54   91.56  17
  -1  -7  11 1423.69   70.99  16
  -1   7 -11 1171.83   62.47   8
   1   7 -11 1224.93   70.90   8
  -1 -11   7 1486.79   97.21  16
  -7 -11   1 1149.46   81.85  15
   1 -11  -7  818.34   70.92  15
 -11   7   1 1345.24   77.97   7
  -7 -11  -1 1241.84   90.94  15
  -1 -11  -7 1050.94   78.53  15
  -7  11   1 1315.97   77.94   7
 -11  -7  -1 1314.59   69.25  15
  -1  -7  11 1538.28   98.85   4
   7  -1  11 1169.54   72.38   4
   1  -7  11 1471.37  103.00   4
 -11  -1  -7 1478.90   87.67  15
  -1 -11   7  742.46   54.45   4
  -7  -1 -11 1415.16   90.97  15
 -11   1  -7 1544.16   89.71  15
  -7   1 -11 1533.39   94.42  15
  -1  11   7 1511.00   73.34   7
   1  11   7 1439.42   63.14   7
   1  -7 -11 1404.52   81.79  14
  -1  -7 -11 1348.81   83.65  14
  -7   1  11 1363.63   62.84   7
   1 -11   7 1114.92   81.52   4
 -11  -7  -1  919.53   51.63  13
  -1   7  11 1366.13   83.69   7
 -11  -7   1  973.61   52.83  13
   1   7  11 1254.05   77.88   7
 -11   1   7 1277.45   75.87  13
  -1  11  -7 1499.76   65.83   6
   1   7 -11 1268.19   80.29   2
 -11   7  -1 1429.39   69.41   6
 -11  -7  -1 1134.66   73.91  12
 -11   7   1 1450.13   63.35   6
  -1 -11  -7 1374.20   62.21   3
 -11  -7   1 1252.80   78.59  12
 -11   1   7 1163.44   59.31  12
 -11  -1   7 1242.72   69.95  12
  -7  11   1 1348.65   79.84   6
  -7   1  11 1331.63   63.94  12
   1 -11  -7 1456.12   65.14   3
  -7  -1  11 1345.08   74.90  12
 -11  -1  -7 1352.88   83.14  11
  11   1   7 1555.69   77.94  25
  11  -1   7 1370.32   72.09  25
   1  11   7 1037.73   55.32  24
   1 -11  -7 1075.08   69.50   5
  -7  -1  11 1349.04   87.80  10
  -1   7  11 1296.43   63.50  10
  -1  -7  11 1570.33   75.77  10
   1  -7  11 1372.20   76.60  10
   1  -7 -11 1303.91   69.02   5
   1 -11   7 1428.52   93.75   9
   1  11  -7 1210.77   80.85   2
  11  -1  -7 1477.57   76.41   5
  11   1  -7 1497.63   69.59   5
   7 -11   1 1313.76   79.50   3
   7 -11  -1 1338.23   85.55   9
   7  -1 -11 1535.28   91.90   5
  11  -7   1 1387.27   91.58   9
  11  -7  -1 1336.43   90.85   9
 -11  -7  -3 1508.08   73.92  19
   3  -7 -11 1113.62   81.35   8
  -7 -11   3 1346.40   90.26  19
  -7  -3  11 1436.28   84.83   4
  -7 -11  -3 1416.72   85.35  19
   7  -3 -11 1485.01   81.38   8
  -3 -11  -7 1407.25   78.48  19
  -3 -11  -7 1132.09   76.98  18
   3 -11  -7 1154.88   71.40  18
  -7   3 -11  504.54   37.05   2
  -3  -7 -11 1348.99   77.24  18
   7   3 -11 1312.21   63.51   2
   7   3 -11 1317.65   79.73   8
  -3 -11  -7 1255.67   77.19  17
   7 -11  -3 1337.65   71.28  17
  -3 -11   7 1287.29   91.09  16
  -3  -7  11 1358.15   86.39   4
  -7 -11  -3 1089.33   85.87  15
  -3 -11  -7 1110.95   82.43  15
 -11   7   3 1196.45   73.71   7
 -11  -7  -3 1259.14   76.31  15
  -7  11   3 1242.98   77.06   7
  -3  -7 -11 1150.37   73.63  15
 -11   3   7  623.35   39.90   7
 -11  -3  -7 1242.95   84.29  15
  -7  -3 -11 1242.84   86.27  15
  -3  11   7 1321.37   74.35   7
 -11   3  -7 1347.81   84.10  15
   7  -3  11 1084.79   80.07   4
  -7   3 -11 1474.15   93.86  15
   3  -7 -11 1321.58   74.59  14
  -7   3  11 1228.55   66.94   7
  -7  -3 -11 1338.46   75.44  14
  -3   7  11 1199.75   79.40   7
 -11  -7   3  641.18   42.71  13
   3 -11   7  936.89   81.14   4
  -3   7 -11 1113.67   71.09   2
   3   7 -11 1166.35   76.07   2
 -11   7  -3 1363.70   73.15   6
 -11   3   7 1159.70   70.13  13
 -11  -3   7 1256.28   75.35  13
  -3  11  -7 1350.34   70.72   6
 -11  -7   3 1168.43   78.03  12
  -7  11  -3 1292.39   80.54   6
  -7 -11   3  292.75   28.38  12
 -11  -3   7 1133.52   73.72  12
  -3 -11   7  576.16   39.81  12
  -7  -3  11 1311.72   81.42  12
  -7   3 -11 1419.87   81.11  11
  -7  11   3 1268.54   75.12   6
   7 -11   3 1198.67   52.46  27
  11   7   3 1223.20   60.27  25
   3 -11  -7 1297.88   62.23   3
   7 -11  -3  954.72   85.10   5
   3  11   7  897.65   56.68  24
  -7   3  11 1201.07   82.31  10
  -7  -3  11 1336.63   82.46  10
  -3   7  11 1187.96   65.46  10
  11  -7  -3 1238.49   83.87   5
   3 -11  -7  988.17   73.60   5
   3  -7  11 1241.77   76.57  10
  -3  11  -7  991.98   68.60   2
  11  -3  -7 1351.26   81.55   5
   3  -7 -11 1135.39   73.52   5
   3  11  -7 1129.94   76.74   2
   3 -11   7 1312.02   88.77   9
   7 -11   3 1282.74   76.12   3
   7 -11  -3 1250.77   76.74   3
   7 -11   3 1275.09   87.05   9
   7  -3 -11 1297.94   87.25   5
   7 -11  -3 1257.87   77.63   9
  11  -7   3 1262.00   80.89   9
 -11  -3   7 1480.65   87.86  19
   0 -12   0 4697.34  150.79  19
   0   0 -12 4667.17  131.59   8
   0 -12   0 4121.04  138.85  17
   0   0 -12 4291.51  139.17   2
   0   0  12 4512.01  155.77   4
 -12   0   0 3799.85  130.18  13
 -12   0   0 3651.14  120.45  12
   0  12   0 4560.06  123.50   6
 -12   0   0 3768.68  102.24  11
   0 -12   0 4547.18  155.22   3
   0   0  12 4376.42  153.79  10
   0 -12   0 4298.70  130.96   9
   0  -2 -12  452.74   48.28   2
  -2 -12   0  508.82   59.77  19
   0 -12   2  542.05   54.78  19
   0  -2 -12  501.95   46.80   8
  -2   0 -12  516.13   41.84   8
   0 -12  -2  491.83   58.25  19
   2 -12   0  526.10   55.69  19
   2   0 -12  462.29   45.62   8
  -2   0 -12  446.10   46.22   2
   0   2  12  479.21   48.71   4
   2   0 -12  441.29   46.14   2
  -2   0  12  491.02   53.73   4
   0   2 -12  520.46   44.99   8
   2 -12   0  483.07   49.59  17
   0 -12  -2  469.52   53.16  17
  -2 -12   0  338.15   54.67  15
   0 -12  -2  355.04   55.84  15
   2   0  12  466.64   51.38   4
   0  -2  12  485.41   56.13   4
   0   2 -12  491.73   48.33   2
  -2   0 -12  495.31   44.87  15
 -12   0  -2  399.94   46.33  13
 -12   2   0  384.63   45.84  13
 -12  -2   0  420.93   47.84  13
 -12   0   2  444.75   48.16  13
 -12  -2   0  415.42   47.08  12
 -12   0   2  410.07   41.94  12
  -2 -12   0  544.80   56.44   3
   0  12  -2  466.70   44.54   6
  -2  12   0  469.38   50.60   6
   2 -12   0  448.28   36.24  27
 -12  -2   0  490.69   35.09  26
   2  12   0  489.03   43.31   6
 -12   0  -2  413.45   42.23  11
   0 -12   2  463.28   53.03   3
   0 -12  -2  482.93   52.83   3
   0  12   2  496.63   50.12   6
  12   0   2  443.88   46.14  25
  12   2   0  413.63   42.63  25
   2 -12   0  469.79   52.74   3
  -2   0  12  463.56   53.11  10
   0   2  12  517.24   53.57  10
   0  -2  12  570.49   58.14  10
   2   0  12  489.88   55.12  10
   0 -12   2  471.52   53.21   9
   0 -12  -2  419.53   39.21   9
   2 -12   0  431.81   50.50   9
 -12  -2   0  527.18   47.53  19
   0  -2 -12  491.86   40.95   5
  -2  -2 -12 3878.51  133.20   2
  12  -2   2 3914.13  124.54   9
   2  -2 -12 3877.24  134.76   2
  -2  -2 -12 4489.89  130.81   8
  -2 -12   2 4270.67  142.89  19
  -2 -12  -2 4066.57  146.18  19
   2 -12   2 4109.94  124.80  19
  -2   2  12 3978.82  143.94   4
  -2   2 -12 4284.82  113.81   8
   2   2 -12 4151.12  131.58   8
   2   2  12 3618.96  123.19   4
   2 -12  -2 3974.61  135.19  17
  -2  -2  12 4113.19  157.38   4
  -2 -12  -2 3190.07  149.43  15
  -2   2 -12 4178.44  135.71   2
   2   2 -12 4167.79  138.85   2
   2  -2  12 3814.95  150.50   4
  -2  12   2 3992.76  100.70   7
  -2  -2 -12 3948.29  117.32  15
  -2   2 -12 4231.26  125.43  15
 -12   2  -2 3242.89  119.39  13
 -12  -2  -2 3371.79  123.53  13
 -12   2   2 3449.15  121.49  13
 -12  -2   2 3726.67  127.81  13
 -12   2   2 2900.55   95.81  12
 -12  -2   2 3437.42  122.58  12
  -2 -12   2 4109.73  146.13   3
  -2 -12  -2 4026.92  142.19   3
  -2  12  -2 3986.54  120.97   6
 -12  -2  -2 3384.46   97.29  11
   2 -12   2 4066.98  101.24  27
   2 -12  -2 3934.11   98.75  27
 -12  -2   2 4217.17   95.99  26
 -12  -2  -2 3980.03   91.45  26
  -2  12   2 4006.50  128.59   6
 -12   2  -2 3993.06  130.95  11
   2  12   2 4180.72  117.93   6
  12   2   2 4074.00  127.78  25
   2 -12   2 4018.75  142.62   3
   2 -12  -2 4014.14  142.03   3
  -2   2  12 4009.13  145.44  10
  -2  -2  12 4287.36  153.68  10
   2   2  12 3862.79  143.67  10
   2 -12   2 4102.74  145.54   9
   2 -12  -2 3784.87  116.01   9
  -2  -2 -12 3923.57   93.91   5
 -12  -2  -2 4465.94  103.26  19
 -12  -2   2 4494.16  131.09  19
   2  -2 -12 3995.66  126.92   5
   0  -4 -12 3581.30  133.37   8
   0   4  12 3477.86  118.86   4
  -4   0 -12 4364.13  104.50   8
   0 -12   4 3713.73  112.34  19
  -4 -12   0 3829.31  145.44  19
  -4   0 -12 3814.54  124.83   2
   4   0 -12 3947.46  130.68   2
  -4   0  12 3729.69  147.20   4
   4   0 -12 3875.43  132.95   8
   4 -12   0 3557.68  115.94  17
   0   4 -12 3643.68  116.39   8
  -4 -12   0 3741.68  119.61  16
   0 -12  -4 2696.84  130.58  15
  -4  12   0 3371.22  104.24   7
   4   0  12 3466.61  126.04   4
 -12   0  -4 3563.45  110.76  15
   0   4 -12 3745.35  134.60   2
  -4   0 -12 3629.29  127.13  15
   0  -4 -12 3551.64  130.49  14
 -12   0  -4 3117.83  122.27  13
 -12   4   0 2921.36  107.51  13
 -12  -4   0 3138.05  115.11  13
 -12   0   4 3362.19  122.88  13
  -4 -12   0 3920.67  144.06   3
 -12  -4   0 3056.49  121.85  12
 -12   0   4 3053.80  106.28  12
   0  12  -4 3697.56  100.09   6
  -4  12   0 3667.75  125.67   6
   0 -12   4 3762.07  132.00   3
   0 -12  -4 3892.63  132.77   3
   4 -12   0 3542.46   95.51  27
 -12   0  -4 3504.24  122.74  11
 -12  -4   0 3620.18   88.02  26
  12   0   4 3607.39  122.57  25
  12   4   0 3422.71  104.47  25
   0   4  12 3673.53  129.62  10
   0  -4  12 3921.88  145.63  10
   4 -12   0 3684.39  137.59   3
   4   0  12 3372.08  144.68  10
   0 -12   4 3718.94  145.22   9
   4 -12   0 3592.20  131.60   9
   0  -4 -12 3704.91  106.67   5
 -12  -4   0 4758.06  140.51  19
  -2   4  12  394.97   45.37   4
  -4  -2 -12  421.97   36.72   8
  -2  -4 -12  412.00   42.93   8
  -4   2  12  432.07   50.99   4
  -2 -12   4  398.17   47.75  19
  -4 -12   2  410.87   55.64  19
   2   4  12  355.49   35.88   4
   2 -12   4  423.32   39.77  19
  -2 -12  -4  387.12   53.08  19
   4  -2 -12  426.12   46.54   8
   4 -12   2  374.57   42.77  19
  -4  -2  12  377.36   49.81   4
  -2   4 -12  348.52   34.04   8
   4   2 -12  406.40   45.34   8
  -2 -12  -4  383.10   51.84  17
   4 -12  -2  395.04   46.94  17
   2   4 -12  381.31   42.95   8
   4   2  12  360.46   37.69   4
   2 -12  -4  392.66   50.16  17
  -4   2 -12  425.18   43.31   2
   4   2 -12  456.63   46.58   2
  -4 -12   2  430.34   49.82  16
  -2  -4  12  474.33   58.09   4
  -4 -12  -2  328.52   56.15  15
  -2 -12  -4  230.08   49.66  15
  -4  12   2  351.62   40.97   7
   4  -2  12  365.59   50.53   4
   2  -4  12  413.96   55.78   4
  -2  12   4  375.38   38.25   7
  -2  -4 -12  334.27   38.33  15
 -12  -2  -4  439.84   43.27  15
  -2   4 -12  423.07   45.63   2
   2   4 -12  390.46   45.59   2
  -4  -2 -12  358.48   44.20  15
 -12   2  -4  373.95   37.91  15
  -4   2 -12  359.12   44.91  15
   2  -4 -12  378.22   42.71  14
  -2  -4 -12  368.37   46.39  14
 -12   2  -4  290.08   41.75  13
 -12  -2  -4  301.90   42.99  13
 -12   4  -2  330.92   41.22  13
 -12  -4  -2  308.74   42.78  13
  -4   2  12  395.60   44.69   7
 -12   4  -2  283.29   34.56   6
 -12   4   2  288.73   38.53  13
 -12  -4   2  320.32   41.40  13
 -12   2   4  359.76   43.39  13
 -12  -2   4  404.56   46.49  13
  -4 -12   2  374.18   48.67   3
  -4 -12  -2  418.14   48.98   3
 -12   2   4  270.04   31.47  12
 -12  -4   2  302.42   43.41  12
 -12  -2   4  341.77   42.09  12
  -2  12  -4  356.13   43.65   6
  -2 -12   4  416.41   47.52   3
  -2 -12  -4  382.22   44.65   3
  -4  12  -2  389.30   50.19   6
 -12  -2  -4  302.77   39.43  11
   4 -12   2  381.19   32.93  27
   4 -12  -2  384.16   32.94  27
  -4  12   2  380.77   49.58   6
 -12  -2   4  376.15   28.33  26
 -12   2  -4  427.41   50.10  11
 -12  -2  -4  366.45   27.63  26
 -12  -4   2  380.92   29.45  26
 -12  -4  -2  381.43   29.54  26
  -2  12   4  373.24   50.12   6
  12   4   2  408.90   42.10  25
   4  12   2  340.42   37.67   6
  12   2   4  404.55   44.38  25
   2 -12   4  358.15   43.82   3
   2 -12  -4  412.94   46.44   3
  -4   2  12  392.68   48.14  10
  -4  -2  12  410.61   50.57  10
  -2   4  12  384.26   45.73  10
  -2  -4  12  432.22   49.54  10
   4 -12   2  364.58   45.82   3
   2   4  12  361.03   42.24  10
   4 -12  -2  388.19   46.60   3
   2  -4  12  398.16   50.77  10
   4   2  12  380.22   47.74  10
   4 -12   2  362.55   51.94   9
   4 -12  -2  344.11   44.09   9
   2  -4 -12  385.91   42.16   5
   4  -2 -12  448.68   48.81   5
  12  -4   2  394.70   49.31   9
 -12  -4  -2  494.14   47.72  19
 -12  -4   2  545.34   60.89  19
  -4  -4 -12 3023.72  103.40   8
  -4 -12   4 3256.00  122.14  19
   4  -4 -12 3037.51  126.85   8
  -4 -12  -4 3266.66  130.96  19
  -4  -4  12 3234.92  136.87   4
  -4 -12  -4 2913.50  119.56  17
   4   4 -12 2917.40  118.25   8
   4 -12  -4 3087.63  120.56  17
  -4 -12   4 3190.75  136.50  16
  -4 -12  -4 2277.85  124.81  15
 -12   4   4 2732.01   88.96   7
  -4   4 -12 3012.23  110.01   2
   4   4 -12 3325.16  121.52   2
 -12  -4  -4 3025.08  109.86  15
  -4  12   4 3106.64  105.74   7
  -4  -4 -12 3030.79  118.29  15
   4  -4  12 2799.41  138.29   4
   4  -4 -12 3332.65  108.60  14
  -4  -4 -12 3113.30  125.73  14
 -12   4  -4 2369.86   99.51  13
 -12  -4  -4 2368.55  100.85  13
  -4   4  12 2824.66  114.28   7
 -12   4   4 2440.53   97.38  13
 -12  -4   4 2736.69  107.05  13
  -4 -12   4 3128.87  120.54   3
  -4 -12  -4 3192.38  118.95   3
 -12  -4   4 2617.80  113.45  12
  -4  12  -4 3074.99  111.43   6
   4 -12   4 3007.85   81.25  27
   4 -12  -4 2849.79   80.74  27
 -12   4  -4 3085.50  129.00  11
  12   4   4 3007.97  103.49  25
  -4   4  12 2825.96  118.74  10
   4 -12   4 3046.04  116.29   3
  -4  -4  12 3192.50  125.76  10
   4 -12  -4 2974.01  116.17   3
  12  -4  -4 2964.48  109.57   5
   4   4  12 2829.06  112.68  10
   4  -4  12 2858.21  132.22  10
   4 -12  -4 2721.59   91.94   9
   4  -4 -12 3139.89  123.74   5
  12  -4   4 3042.40  102.23   9
 -12  -6   0  411.59   53.80  19
   0  -6 -12   -0.68    5.15   5
   0  -6 -12  272.63   43.56   8
  -6 -12   0  330.94   54.46  19
   0 -12  -6  281.38   48.43  19
   6   0 -12  388.49   45.15   8
   6 -12   0  278.14   35.76  17
   0   6 -12  277.96   34.23   8
  -6 -12   0  275.03   32.53  16
  -6 -12   0  239.72   49.48  15
   0 -12  -6  145.73   40.06  15
  -6  12   0  267.95   41.23   7
   6   0  12  259.54   34.93   4
   0  -6  12  311.49   51.70   4
 -12   0  -6  331.81   43.08  15
  -6   0 -12  337.35   47.80  15
   0  -6 -12  265.16   41.18  14
   0   6 -12  301.68   42.51   2
  -6   0  12  295.86   33.61   7
 -12   6   0  214.78   31.37  13
 -12  -6   0  193.05   32.29  13
   0   6  12  317.08   45.86   7
   0 -12   6    0.83    6.06   4
 -12   0   6  298.00   41.68  13
 -12  -6   0  241.51   41.47  12
 -12   0   6  240.39   32.91  12
   0 -12   6  344.06   37.64   3
   0 -12  -6  281.92   35.19   3
  -6   0  12  293.02   36.85  12
 -12   0  -6  324.19   46.80  11
   6 -12   0  298.45   29.76  27
 -12   0  -6  299.51   22.09  26
  12   0   6  304.19   39.66  25
 -12   6   0    1.57    6.58   6
   0   6  12  310.56   36.05  10
   0  -6  12  297.94   40.97  10
   6 -12   0  301.83   43.14   3
   6 -12   0  267.99   46.08   9
  12  -6   0  213.09   47.15   9
  -6   0 -12  340.14   36.28   2
   6   0 -12  370.03   48.73   5
   6   0 -12  319.98   37.05   2
 -12  -6  -2 3435.17  111.29  19
  -2  -6 -12 2532.18  110.72   8
  -2 -12   6 2871.69   90.77  19
  -6 -12   2 2993.73  128.35  19
  -6 -12  -2 2939.38  126.69  19
  -6  -2  12 2886.64  127.74   4
  -2 -12  -6 2933.37  117.30  19
   6  -2 -12 3030.29  119.65   8
  -6   2 -12 3020.61  100.41   2
   6   2 -12 3201.47  109.03   2
   6 -12   2 2855.45   91.89  19
   6   2 -12 2899.10  119.93   8
  -2   6 -12 2213.38   78.36   8
  -2 -12  -6 2879.66  119.50  17
   6 -12  -2 2876.65  101.88  17
  -6 -12   2 3010.10  114.27  16
   2   6 -12 2410.39  105.01   8
  -2 -12   6 2977.03  137.82  16
  -2  -6  12 3013.47  137.02   4
 -12   6   2 2510.28   97.33   7
  -6 -12  -2 2072.55  124.90  15
  -2 -12  -6 2128.47  114.78  15
  -6  12   2 2661.37  105.26   7
  -2  -6 -12 2600.16   96.85  15
   6  -2  12 2416.26  114.90   4
 -12  -2  -6 2912.04  116.65  15
  -2  12   6 2794.98   95.69   7
  -6  -2 -12 2751.77  120.30  15
 -12   2  -6 2837.21  111.40  15
  -6   2 -12 2904.63  126.24  15
  -2   6 -12 2551.20  107.71   2
   2   6 -12 2634.66  113.96   2
   2  -6 -12 2772.65  111.09  14
  -2  -6 -12 2634.22  116.81  14
  -6   2  12 2867.84  101.82   7
 -12   6  -2 1870.69   79.57  13
 -12  -6  -2 1961.12   82.71  13
  -2   6  12 2649.41  114.88   7
   2 -12   6 1810.38   99.50   4
 -12   6   2 1950.17   79.45  13
 -12  -6   2 2182.99   87.56  13
 -12   6  -2 2524.45   87.16   6
 -12   2   6 2458.28  103.29  13
 -12  -2   6 2536.23  107.88  13
  -2 -12   6 2895.75  100.83   3
  -2 -12  -6 2940.72  101.64   3
  -2  12  -6 2879.32   95.60   6
 -12  -2   6 2374.39  100.08  12
  -6  12  -2 2744.02  111.64   6
   2 -12   6 2950.28  101.59   3
   6 -12   2 2683.46   80.74  27
   6 -12  -2 2640.60   80.21  27
 -12   2  -6 2880.95  123.39  11
   2 -12  -6 2855.12  102.26   3
  12  -6  -2 2376.74  102.20   5
  -6   2  12 2713.74  125.33  10
  -6  -2  12 2893.64  126.07  10
  -2   6  12 2697.99  102.22  10
  -2  -6  12 3035.08  113.02  10
   2   6  12 2639.42   94.84  10
   2  -6  12 2936.14  121.08  10
  12  -2  -6 2670.44   98.86   5
   6   2  12 2370.34  114.01  10
   6 -12   2 2781.25  114.81   3
   6 -12  -2 2820.35  117.11   3
   2 -12   6 2907.60  131.85   9
   2  -6 -12 2508.33   98.95   5
   6 -12  -2 2636.46  109.10   9
  -2  12  -6 2212.15  102.25   2
   2  12  -6 2164.06  104.25   2
  12  -6   2 2732.70  115.83   9
  12  -6  -2 2313.39  118.79   9
 -12  -6   2 3664.05  139.30  19
   1  -1 -13 1382.55   84.15   2
  -1 -13   1 1554.72   92.55  19
  -1  -1 -13 1612.08   79.30   8
  -1 -13  -1 1450.81   91.45  19
   1 -13   1 1561.07   86.30  19
   1  -1 -13 1525.33   82.66   8
   1 -13  -1 1438.33   89.52  19
  -1   1 -13 1609.56   76.94   8
   1   1 -13 1572.67   81.96   8
  -1   1  13 1432.26   90.14   4
  -1 -13  -1 1347.35   86.94  17
   1 -13  -1 1445.99   86.78  17
   1   1  13 1314.61   82.44   4
   1   1 -13 1453.93   85.92   2
  -1  -1  13 1446.77   95.57   4
   1  -1  13 1398.28   91.95   4
 -13   1  -1 1117.29   75.38  13
 -13   1   1 1105.99   74.81  13
 -13   1   1 1002.99   63.52  12
 -13  -1   1 1148.69   72.94  12
  -1 -13   1 1542.37   94.14   3
  -1  13  -1 1445.24   76.73   6
   1  13  -1 1521.92   70.47   6
 -13  -1  -1  384.92   32.77  11
  -1  13   1 1507.87   80.72   6
 -13  -1   1 1448.10   57.72  26
 -13  -1  -1 1449.31   57.33  26
   1  13   1 1618.52   77.34   6
 -13   1  -1 1278.82   69.50  11
 -13   1   1  429.33   35.79  11
   1 -13   1 1517.64   93.97   3
  -1   1  13 1376.14   89.87  10
   1   1  13 1463.16   92.36  10
  -1 -13   1 1350.60   79.50   9
   1 -13   1 1409.78   84.73   9
   1 -13  -1 1337.53   73.21   9
  -1  -1 -13 1455.45   65.99   5
   1  -1 -13 1476.78   76.41   5
  -3  -1 -13 1226.98   76.21   2
   3  -1 -13 1356.48   82.21   2
  -1  -3 -13 1403.33   80.53   8
  -3  -1 -13 1577.70   72.21   8
  -1 -13   3 1398.63   79.08  19
  -3 -13   1 1361.85   89.88  19
   1  -3 -13 1416.70   85.74   8
  -1   3  13 1289.10   80.20   4
  -3 -13  -1 1325.33   92.35  19
   1 -13   3 1462.78   76.30  19
  -3   1  13 1323.25   89.24   4
  -3   1 -13 1469.41   64.25   8
   1   3  13 1236.55   72.82   4
   3 -13   1 1422.93   78.98  19
   1 -13  -3 1336.85   90.95  19
   3 -13  -1 1396.61   86.50  19
  -3  -1  13 1310.26   90.30   4
  -3   1 -13 1428.44   80.94   2
   3   1 -13 1445.42   83.70   2
  -1   3 -13 1370.36   69.48   8
   1   3 -13 1399.10   77.01   8
   3 -13  -1 1287.18   78.65  17
   1 -13  -3 1206.73   82.06  17
   3   1  13 1178.28   73.77   4
  -1  -3  13 1367.43   96.23   4
  -3 -13  -1 1236.81   67.10  16
  -3 -13   1 1292.28   80.85  16
  -3 -13  -1  805.64   80.91  15
  -1 -13  -3  727.35   79.53  15
   3  -1  13 1258.52   84.47   4
   1   3 -13 1383.36   84.30   2
  -3  13   1 1198.50   58.46   7
   1  -3  13 1385.44   95.80   4
  -3  -1 -13 1361.72   74.45  15
  -3   1 -13 1384.13   75.56  15
  -1   3 -13 1463.65   69.54  15
   1  -3 -13 1317.95   80.47  14
 -13   1  -3 1006.80   73.38  13
 -13   3  -1  971.04   68.86  13
 -13  -3  -1 1024.77   70.99  13
 -13   3   1  936.37   67.73  13
 -13  -3   1 1040.36   71.89  13
 -13   1   3 1078.22   74.09  13
 -13  -3  -1  947.83   72.61  12
 -13   1   3  921.37   58.52  12
 -13  -3   1 1093.54   75.16  12
 -13  -1   3 1009.35   66.65  12
  -3 -13   1 1353.75   89.95   3
  -1  13  -3 1248.66   67.97   6
  -1 -13   3 1381.42   86.00   3
  -1 -13  -3 1357.14   84.29   3
  -3  13  -1 1283.19   78.66   6
  -3  13   1 1393.99   82.46   6
   3 -13   1 1276.67   59.40  27
 -13  -1  -3 1056.41   63.30  11
 -13   1  -3 1257.33   75.21  11
   3  13   1 1347.32   63.26   6
 -13  -1   3 1344.31   53.44  26
 -13  -1  -3 1345.54   51.00  26
   1 -13   3 1376.10   86.03   3
   1 -13  -3 1326.66   83.78   3
 -13  -3   1 1306.78   53.12  26
 -13  -3  -1 1318.01   52.85  26
  -1  13   3 1331.36   79.72   6
 -13   3  -1 1255.55   76.89  11
   1  13   3 1282.19   74.90   6
  13   1   3 1194.68   70.14  25
  13   3   1 1107.95   62.82  25
   3 -13   1 1281.40   85.30   3
  -3   1  13 1364.23   89.43  10
  -1   3  13 1323.26   85.18  10
  -1  -3  13 1395.29   91.25  10
   1   3  13 1303.76   83.16  10
   1  -3  13 1357.99   90.88  10
   3   1  13 1326.02   90.69  10
   3  -1  13 1335.90   93.01  10
   1 -13   3 1337.51   89.25   9
   3 -13   1 1318.13   84.04   9
   3 -13  -1 1213.39   74.25   9
   1  -3 -13 1336.87   71.20   5
 -13  -3  -1 1503.31   69.00  19
 -13  -3   1 1444.69   76.30  19
   3  -1 -13 1384.48   81.57   5
  13  -3   1 1253.91   81.43   9
   0   0   0    0.00    0.00   0
;
_shelx_hkl_checksum                67940
_olex2_submission_special_instructions  'No special instructions were received'
_oxdiff_exptl_absorpt_empirical_details
;
Empirical correction (ABSPACK) includes:
- Absorption correction using spherical harmonics
- Frame scaling
;
_oxdiff_exptl_absorpt_empirical_full_max  1.970
_oxdiff_exptl_absorpt_empirical_full_min  0.709
